MODEL        1
USER    Run = 1
USER
USER    Estimated Free Energy of Binding    =  -5.14 kcal/mol  [=(1)+(2)+(3)-(4)]
USER
USER    (1) Final Intermolecular Energy     =  -6.04 kcal/mol
USER        vdW + Hbond + desolv Energy     =  -5.90 kcal/mol
USER        Electrostatic Energy            =  -0.14 kcal/mol
USER        Moving Ligand-Fixed Receptor    =  -6.04 kcal/mol
USER        Moving Ligand-Moving Receptor   =  +0.00 kcal/mol
USER    (2) Final Total Internal Energy     =  -0.54 kcal/mol
USER    (3) Torsional Free Energy           =  +0.89 kcal/mol
USER    (4) Unbound System's Energy         =  -0.54 kcal/mol
USER
USER
REMARK  Name = Z13599315
REMARK  4 active torsions:
REMARK  status: ('A' for Active; 'I' for Inactive)
REMARK    1  A    between atoms: C_1  and  O_2
REMARK    2  A    between atoms: O_2  and  C_3
REMARK    3  A    between atoms: C_7  and  C_8
REMARK    4  A    between atoms: C_8  and  N_9
REMARK                            x       y       z     vdW  Elec       q    Type
REMARK                         _______ _______ _______ _____ _____    ______ ____
USER                              x       y       z     vdW  Elec       q    Type
USER                           _______ _______ _______ _____ _____    ______ ____
ROOT
ATOM      1  N   UNL     1     163.639 169.912 174.419 -0.15 +0.05    -0.220 N 
ATOM      2  C   UNL     1     163.629 171.277 174.556 -0.04 -0.05    +0.251 C 
ATOM      3  O   UNL     1     162.646 171.962 174.806 -0.13 -0.00    -0.272 OA
ATOM      4  C   UNL     1     165.039 171.801 174.169 -0.17 -0.04    +0.138 C 
ATOM      5  C   UNL     1     164.972 172.355 172.739 -0.17 +0.00    -0.012 A 
ATOM      6  C   UNL     1     165.039 173.741 172.500 -0.11 +0.01    -0.042 A 
ATOM      7  C   UNL     1     164.875 174.229 171.192 -0.22 -0.00    +0.004 A 
ATOM      8  C   UNL     1     164.623 173.362 170.129 -0.32 -0.00    +0.000 A 
ATOM      9  C   UNL     1     164.557 171.995 170.353 -0.30 -0.00    +0.000 A 
ATOM     10  C   UNL     1     165.333 174.730 173.601 -0.10 -0.01    +0.035 C 
ATOM     11  C   UNL     1     165.052 174.195 175.002 -0.16 -0.00    +0.007 C 
ATOM     12  C   UNL     1     164.737 171.498 171.641 -0.25 -0.00    +0.006 A 
ATOM     13  C   UNL     1     165.618 172.791 175.183 -0.05 -0.01    +0.040 C 
ATOM     14  N   UNL     1     165.763 170.546 174.221 -0.13 +0.17    -0.281 N 
ATOM     15  H   UNL     1     166.696 170.431 173.844 -0.30 -0.19    +0.152 HD
ATOM     16  C   UNL     1     164.905 169.470 174.184 -0.14 -0.12    +0.310 C 
ATOM     17  O   UNL     1     165.257 168.343 173.878 -0.32 +0.08    -0.252 OA
ENDROOT
BRANCH   1  18
ATOM     18  C   UNL     1     162.452 169.124 174.183 -0.29 -0.02    +0.153 C 
BRANCH  18  21
ATOM     19  C   UNL     1     160.214 168.608 177.208 -0.40 -0.03    +0.120 A 
ATOM     20  C   UNL     1     160.734 169.116 176.019 -0.37 -0.00    +0.050 A 
ATOM     21  C   UNL     1     161.874 168.540 175.441 -0.27 +0.00    -0.026 A 
ATOM     22  C   UNL     1     162.475 167.435 176.055 -0.39 -0.00    +0.005 A 
ATOM     23  C   UNL     1     161.934 166.904 177.224 -0.42 -0.00    +0.004 A 
ATOM     24  C   UNL     1     160.804 167.489 177.795 -0.25 -0.01    +0.045 A 
BRANCH  19  26
ATOM     25  C   UNL     1     157.871 168.584 177.469 -0.30 -0.14    +0.277 C 
ATOM     26  O   UNL     1     159.129 169.118 177.869 -0.15 +0.17    -0.495 OA
ENDBRANCH  19  26
ENDBRANCH  18  21
ENDBRANCH   1  18
TORSDOF 3
TER
ENDMDL
