MODEL        1
USER    Run = 1
USER
USER    Estimated Free Energy of Binding    =  -3.33 kcal/mol  [=(1)+(2)+(3)-(4)]
USER
USER    (1) Final Intermolecular Energy     =  -4.52 kcal/mol
USER        vdW + Hbond + desolv Energy     =  -4.61 kcal/mol
USER        Electrostatic Energy            =  +0.10 kcal/mol
USER        Moving Ligand-Fixed Receptor    =  -4.52 kcal/mol
USER        Moving Ligand-Moving Receptor   =  +0.00 kcal/mol
USER    (2) Final Total Internal Energy     =  -2.23 kcal/mol
USER    (3) Torsional Free Energy           =  +1.19 kcal/mol
USER    (4) Unbound System's Energy         =  -2.23 kcal/mol
USER
USER
REMARK  Name = Z13597453
REMARK  4 active torsions:
REMARK  status: ('A' for Active; 'I' for Inactive)
REMARK    1  A    between atoms: C_4  and  N_5
REMARK    2  A    between atoms: C_6  and  C_8
REMARK    3  A    between atoms: C_8  and  N_9
REMARK    4  A    between atoms: C_27  and  C_28
REMARK                            x       y       z     vdW  Elec       q    Type
REMARK                         _______ _______ _______ _____ _____    ______ ____
USER                              x       y       z     vdW  Elec       q    Type
USER                           _______ _______ _______ _____ _____    ______ ____
ROOT
ATOM      1  N   UNL     1     165.591 176.962 174.187 -0.01 +0.03    -0.215 N 
ATOM      2  C   UNL     1     165.711 177.356 172.873 +0.01 -0.06    +0.252 C 
ATOM      3  O   UNL     1     164.884 177.991 172.239 -0.01 +0.11    -0.272 OA
ATOM      4  C   UNL     1     167.035 176.736 172.321 -0.04 -0.02    +0.138 C 
ATOM      5  C   UNL     1     166.632 175.542 171.452 -0.13 +0.00    -0.012 A 
ATOM      6  C   UNL     1     166.683 175.633 170.046 -0.23 -0.00    -0.042 A 
ATOM      7  C   UNL     1     166.078 174.637 169.262 -0.26 +0.00    +0.004 A 
ATOM      8  C   UNL     1     165.411 173.566 169.854 -0.34 +0.00    +0.000 A 
ATOM      9  C   UNL     1     165.390 173.448 171.236 -0.22 -0.00    +0.000 A 
ATOM     10  C   UNL     1     167.413 176.752 169.346 -0.27 -0.00    +0.035 C 
ATOM     11  C   UNL     1     167.546 178.021 170.180 -0.20 -0.00    +0.007 C 
ATOM     12  C   UNL     1     166.012 174.413 172.025 -0.12 -0.00    +0.006 A 
ATOM     13  C   UNL     1     167.971 177.717 171.610 -0.07 -0.00    +0.040 C 
ATOM     14  N   UNL     1     167.638 176.358 173.588 +0.01 +0.05    -0.281 N 
ATOM     15  H   UNL     1     168.524 175.880 173.686 +0.04 -0.04    +0.152 HD
ATOM     16  C   UNL     1     166.766 176.463 174.640 +0.03 -0.04    +0.310 C 
ATOM     17  O   UNL     1     166.998 176.094 175.782 -0.20 -0.01    -0.252 OA
ENDROOT
BRANCH   1  18
ATOM     18  C   UNL     1     164.360 176.863 174.941 -0.02 +0.02    +0.214 C 
BRANCH  18  21
ATOM     19  N   UNL     1     164.488 174.401 175.115 -0.04 -0.02    -0.284 N 
ATOM     20  H   UNL     1     165.406 174.622 175.503 +0.07 -0.01    +0.155 HD
ATOM     21  C   UNL     1     163.757 175.480 174.616 -0.06 +0.04    +0.235 C 
ATOM     22  O   UNL     1     162.794 175.382 173.859 -0.19 +0.05    -0.274 OA
BRANCH  19  28
ATOM     23 CL   UNL     1     161.217 170.410 175.226 -0.64 +0.00    -0.082 Cl
ATOM     24  C   UNL     1     162.775 171.065 174.861 -0.15 -0.01    +0.060 A 
ATOM     25  C   UNL     1     163.785 170.292 174.282 -0.16 -0.02    +0.070 A 
ATOM     26  C   UNL     1     165.027 170.886 174.027 -0.25 -0.01    +0.022 A 
ATOM     27  C   UNL     1     165.247 172.239 174.330 -0.15 -0.01    +0.024 A 
ATOM     28  C   UNL     1     164.226 173.025 174.882 -0.15 -0.00    +0.035 A 
ATOM     29  C   UNL     1     163.001 172.417 175.164 -0.18 +0.00    +0.044 A 
BRANCH  25  30
ATOM     30  C   UNL     1     163.586 168.910 173.940 -0.38 -0.02    +0.101 C 
ATOM     31  N   UNL     1     163.457 167.789 173.682 -0.29 +0.04    -0.191 NA
ENDBRANCH  25  30
ENDBRANCH  19  28
ENDBRANCH  18  21
ENDBRANCH   1  18
TORSDOF 4
TER
ENDMDL
