MODEL        1
USER    Run = 1
USER
USER    Estimated Free Energy of Binding    =  -2.99 kcal/mol  [=(1)+(2)+(3)-(4)]
USER
USER    (1) Final Intermolecular Energy     =  -4.78 kcal/mol
USER        vdW + Hbond + desolv Energy     =  -4.86 kcal/mol
USER        Electrostatic Energy            =  +0.09 kcal/mol
USER        Moving Ligand-Fixed Receptor    =  -4.78 kcal/mol
USER        Moving Ligand-Moving Receptor   =  +0.00 kcal/mol
USER    (2) Final Total Internal Energy     =  -1.66 kcal/mol
USER    (3) Torsional Free Energy           =  +1.79 kcal/mol
USER    (4) Unbound System's Energy         =  -1.66 kcal/mol
USER
USER
REMARK  Name = Z13597409
REMARK  7 active torsions:
REMARK  status: ('A' for Active; 'I' for Inactive)
REMARK    1  A    between atoms: C_1  and  C_2
REMARK    2  A    between atoms: C_2  and  O_3
REMARK    3  A    between atoms: O_3  and  C_4
REMARK    4  A    between atoms: C_7  and  O_8
REMARK    5  A    between atoms: O_8  and  C_9
REMARK    6  A    between atoms: C_9  and  C_10
REMARK    7  A    between atoms: C_10  and  N_11
REMARK                            x       y       z     vdW  Elec       q    Type
REMARK                         _______ _______ _______ _____ _____    ______ ____
USER                              x       y       z     vdW  Elec       q    Type
USER                           _______ _______ _______ _____ _____    ______ ____
ROOT
ATOM      1  N   UNL     1     165.555 175.473 172.094 -0.06 +0.04    -0.221 N 
ATOM      2  C   UNL     1     164.603 174.742 171.423 -0.06 -0.05    +0.251 C 
ATOM      3  O   UNL     1     163.390 174.862 171.522 -0.13 +0.10    -0.272 OA
ATOM      4  C   UNL     1     165.352 173.608 170.672 -0.23 +0.00    +0.138 C 
ATOM      5  C   UNL     1     165.243 172.349 171.544 -0.22 +0.00    -0.012 A 
ATOM      6  C   UNL     1     164.410 171.284 171.157 -0.19 +0.01    -0.042 A 
ATOM      7  C   UNL     1     164.208 170.208 172.039 -0.29 -0.00    +0.004 A 
ATOM      8  C   UNL     1     164.789 170.197 173.306 -0.32 -0.00    +0.000 A 
ATOM      9  C   UNL     1     165.608 171.244 173.699 -0.25 -0.00    +0.000 A 
ATOM     10  C   UNL     1     163.754 171.236 169.800 -0.22 -0.01    +0.035 C 
ATOM     11  C   UNL     1     163.595 172.604 169.143 -0.46 -0.00    +0.007 C 
ATOM     12  C   UNL     1     165.844 172.301 172.824 -0.10 -0.00    +0.006 A 
ATOM     13  C   UNL     1     164.880 173.415 169.230 -0.41 -0.01    +0.040 C 
ATOM     14  N   UNL     1     166.682 174.177 170.683 -0.10 -0.08    -0.281 N 
ATOM     15  H   UNL     1     167.513 173.685 170.382 +0.09 +0.16    +0.152 HD
ATOM     16  C   UNL     1     166.797 175.186 171.609 -0.02 -0.02    +0.310 C 
ATOM     17  O   UNL     1     167.862 175.657 171.967 -0.10 +0.03    -0.252 OA
ENDROOT
BRANCH   1  18
ATOM     18  C   UNL     1     165.368 176.187 173.340 -0.05 -0.04    +0.159 C 
BRANCH  18  19
ATOM     19  C   UNL     1     166.059 175.583 174.564 +0.05 -0.03    +0.248 C 
BRANCH  19  20
ATOM     20  O   UNL     1     165.137 175.661 175.650 +0.02 -0.06    -0.490 OA
BRANCH  20  24
ATOM     21  C   UNL     1     162.637 172.449 176.536 -0.13 +0.02    +0.121 A 
ATOM     22  C   UNL     1     162.771 172.846 175.202 -0.12 +0.01    +0.049 A 
ATOM     23  C   UNL     1     163.620 173.903 174.852 -0.14 +0.01    +0.049 A 
ATOM     24  C   UNL     1     164.338 174.572 175.841 -0.10 +0.03    +0.121 A 
ATOM     25  C   UNL     1     164.211 174.175 177.170 -0.23 +0.01    +0.049 A 
ATOM     26  C   UNL     1     163.372 173.116 177.516 -0.21 +0.01    +0.049 A 
BRANCH  21  27
ATOM     27  O   UNL     1     161.763 171.419 176.764 -0.07 -0.05    -0.492 OA
BRANCH  27  29
ATOM     28  C   UNL     1     160.656 169.427 175.998 -0.48 -0.00    +0.048 C 
ATOM     29  C   UNL     1     161.287 170.746 175.598 -0.31 +0.00    +0.226 C 
ENDBRANCH  27  29
ENDBRANCH  21  27
ENDBRANCH  20  24
ENDBRANCH  19  20
ENDBRANCH  18  19
ENDBRANCH   1  18
TORSDOF 6
TER
ENDMDL
