MODEL        1
USER    Run = 1
USER
USER    Estimated Free Energy of Binding    =  -4.55 kcal/mol  [=(1)+(2)+(3)-(4)]
USER
USER    (1) Final Intermolecular Energy     =  -5.15 kcal/mol
USER        vdW + Hbond + desolv Energy     =  -5.18 kcal/mol
USER        Electrostatic Energy            =  +0.03 kcal/mol
USER        Moving Ligand-Fixed Receptor    =  -5.15 kcal/mol
USER        Moving Ligand-Moving Receptor   =  +0.00 kcal/mol
USER    (2) Final Total Internal Energy     =  -1.02 kcal/mol
USER    (3) Torsional Free Energy           =  +0.60 kcal/mol
USER    (4) Unbound System's Energy         =  -1.02 kcal/mol
USER
USER
REMARK  Name = Z13596529
REMARK  2 active torsions:
REMARK  status: ('A' for Active; 'I' for Inactive)
REMARK    1  A    between atoms: C_2  and  C_3
REMARK    2  A    between atoms: C_3  and  N_4
REMARK                            x       y       z     vdW  Elec       q    Type
REMARK                         _______ _______ _______ _____ _____    ______ ____
USER                              x       y       z     vdW  Elec       q    Type
USER                           _______ _______ _______ _____ _____    ______ ____
ROOT
ATOM      1  N   UNL     1     164.519 171.551 174.854 -0.07 +0.06    -0.215 N 
ATOM      2  C   UNL     1     163.800 172.511 175.515 -0.05 -0.01    +0.252 C 
ATOM      3  O   UNL     1     162.583 172.639 175.470 -0.24 -0.06    -0.272 OA
ATOM      4  C   UNL     1     164.818 173.498 176.132 -0.17 -0.00    +0.138 C 
ATOM      5  C   UNL     1     164.933 174.690 175.172 -0.11 -0.00    -0.012 A 
ATOM      6  C   UNL     1     164.309 175.912 175.482 -0.08 -0.01    -0.042 A 
ATOM      7  C   UNL     1     164.295 176.944 174.527 -0.08 -0.00    +0.004 A 
ATOM      8  C   UNL     1     164.868 176.767 173.268 -0.07 -0.00    +0.000 A 
ATOM      9  C   UNL     1     165.489 175.568 172.954 -0.08 -0.00    +0.000 A 
ATOM     10  C   UNL     1     163.688 176.175 176.830 -0.10 +0.03    +0.035 C 
ATOM     11  C   UNL     1     163.342 174.916 177.619 -0.25 +0.00    +0.007 C 
ATOM     12  C   UNL     1     165.530 174.545 173.897 -0.01 -0.00    +0.006 A 
ATOM     13  C   UNL     1     164.472 173.895 177.568 -0.27 +0.01    +0.040 C 
ATOM     14  N   UNL     1     165.994 172.647 176.096 -0.06 +0.09    -0.281 N 
ATOM     15  H   UNL     1     166.929 172.969 176.302 +0.11 -0.06    +0.152 HD
ATOM     16  C   UNL     1     165.830 171.604 175.206 +0.05 -0.14    +0.310 C 
ATOM     17  O   UNL     1     166.750 170.948 174.752 -0.25 +0.20    -0.252 OA
ENDROOT
BRANCH   1  18
ATOM     18  C   UNL     1     163.971 170.786 173.767 -0.15 -0.05    +0.214 C 
BRANCH  18  20
ATOM     19  O   UNL     1     164.457 168.533 174.355 -0.33 +0.08    -0.274 OA
ATOM     20  C   UNL     1     163.587 169.402 174.270 -0.19 -0.06    +0.238 C 
ATOM     21  N   UNL     1     162.257 169.249 174.670 -0.20 +0.03    -0.260 N 
ATOM     22  C   UNL     1     161.880 168.315 175.692 -0.29 -0.00    +0.058 A 
ATOM     23  C   UNL     1     160.753 168.610 176.489 -0.40 -0.01    +0.055 A 
ATOM     24  C   UNL     1     160.379 167.777 177.545 -0.34 -0.01    +0.025 A 
ATOM     25  C   UNL     1     161.141 166.648 177.841 -0.24 -0.00    +0.002 A 
ATOM     26  C   UNL     1     162.271 166.358 177.084 -0.19 -0.00    +0.002 A 
ATOM     27  N   UNL     1     160.054 169.816 176.324 -0.21 +0.03    -0.283 N 
ATOM     28  H   UNL     1     159.390 170.124 177.021 +0.18 -0.03    +0.155 HD
ATOM     29  C   UNL     1     160.331 170.694 175.310 -0.30 +0.01    +0.235 C 
ATOM     30  O   UNL     1     159.779 171.790 175.238 -0.31 -0.06    -0.274 OA
ATOM     31  C   UNL     1     162.632 167.179 176.014 -0.36 -0.00    +0.025 A 
ATOM     32  C   UNL     1     161.168 170.114 174.187 -0.10 -0.00    +0.209 C 
ENDBRANCH  18  20
ENDBRANCH   1  18
TORSDOF 2
TER
ENDMDL
