MODEL        1
USER    Run = 1
USER
USER    Estimated Free Energy of Binding    =  -4.55 kcal/mol  [=(1)+(2)+(3)-(4)]
USER
USER    (1) Final Intermolecular Energy     =  -5.74 kcal/mol
USER        vdW + Hbond + desolv Energy     =  -5.88 kcal/mol
USER        Electrostatic Energy            =  +0.14 kcal/mol
USER        Moving Ligand-Fixed Receptor    =  -5.74 kcal/mol
USER        Moving Ligand-Moving Receptor   =  +0.00 kcal/mol
USER    (2) Final Total Internal Energy     =  -2.13 kcal/mol
USER    (3) Torsional Free Energy           =  +1.19 kcal/mol
USER    (4) Unbound System's Energy         =  -2.13 kcal/mol
USER
USER
REMARK  Name = Z13593426
REMARK  5 active torsions:
REMARK  status: ('A' for Active; 'I' for Inactive)
REMARK    1  A    between atoms: C_1  and  C_2
REMARK    2  A    between atoms: C_2  and  C_21
REMARK    3  A    between atoms: N_6  and  C_7
REMARK    4  A    between atoms: C_7  and  C_8
REMARK    5  A    between atoms: N_10  and  C_11
REMARK                            x       y       z     vdW  Elec       q    Type
REMARK                         _______ _______ _______ _____ _____    ______ ____
USER                              x       y       z     vdW  Elec       q    Type
USER                           _______ _______ _______ _____ _____    ______ ____
ROOT
ATOM      1  C   UNL     1     163.813 166.821 173.592 -0.44 -0.01    +0.047 C 
ATOM      2  C   UNL     1     163.822 168.245 174.148 -0.40 -0.03    +0.135 C 
ATOM      3  C   UNL     1     163.987 169.298 173.015 -0.24 -0.06    +0.251 C 
ATOM      4  O   UNL     1     163.332 169.348 171.980 -0.28 +0.07    -0.272 OA
ATOM      5  N   UNL     1     164.995 170.157 173.354 -0.22 +0.08    -0.215 N 
ATOM      6  C   UNL     1     165.626 169.714 174.469 -0.03 -0.18    +0.310 C 
ATOM      7  O   UNL     1     166.586 170.221 175.022 -0.31 +0.21    -0.252 OA
ATOM      8  N   UNL     1     165.046 168.534 174.867 -0.22 +0.11    -0.281 N 
ATOM      9  H   UNL     1     165.355 168.086 175.717 +0.09 -0.06    +0.152 HD
ENDROOT
BRANCH   2  10
ATOM     10  C   UNL     1     162.590 168.466 175.027 -0.32 +0.00    -0.015 A 
ATOM     11  C   UNL     1     161.743 169.573 174.835 -0.37 -0.00    +0.007 A 
ATOM     12  C   UNL     1     160.580 169.732 175.598 -0.45 -0.00    +0.020 A 
ATOM     13  C   UNL     1     160.240 168.782 176.556 -0.43 -0.01    +0.041 A 
ATOM     14 CL   UNL     1     158.798 168.963 177.475 -0.58 +0.03    -0.084 Cl
ATOM     15  C   UNL     1     161.056 167.674 176.762 -0.40 -0.00    +0.020 A 
ATOM     16  C   UNL     1     162.215 167.514 175.998 -0.39 -0.00    +0.007 A 
ENDBRANCH   2  10
BRANCH   5  17
ATOM     17  C   UNL     1     165.421 171.319 172.596 -0.17 -0.06    +0.214 C 
BRANCH  17  18
ATOM     18  C   UNL     1     164.906 172.620 173.224 -0.06 -0.05    +0.235 C 
ATOM     19  N   UNL     1     165.142 172.681 174.595 -0.04 +0.07    -0.282 N 
ATOM     20  H   UNL     1     165.485 171.846 175.064 +0.11 -0.06    +0.155 HD
ATOM     21  O   UNL     1     164.367 173.497 172.553 -0.08 +0.05    -0.274 OA
BRANCH  19  22
ATOM     22  C   UNL     1     164.831 173.759 175.463 -0.12 -0.00    +0.069 A 
ATOM     23  C   UNL     1     163.826 173.558 176.427 -0.14 +0.03    +0.147 A 
ATOM     24  F   UNL     1     163.213 172.366 176.503 -0.01 -0.01    -0.203 F 
ATOM     25  C   UNL     1     163.430 174.571 177.297 -0.17 +0.04    +0.078 A 
ATOM     26  C   UNL     1     164.062 175.802 177.217 -0.07 +0.07    +0.126 A 
ATOM     27  F   UNL     1     163.693 176.791 178.041 +0.00 -0.10    -0.205 F 
ATOM     28  C   UNL     1     165.076 176.024 176.293 -0.07 +0.01    +0.040 A 
ATOM     29  C   UNL     1     165.461 175.003 175.416 -0.09 -0.00    +0.029 A 
ENDBRANCH  19  22
ENDBRANCH  17  18
ENDBRANCH   5  17
TORSDOF 4
TER
ENDMDL
