MODEL        1
USER    Run = 1
USER
USER    Estimated Free Energy of Binding    =  -4.89 kcal/mol  [=(1)+(2)+(3)-(4)]
USER
USER    (1) Final Intermolecular Energy     =  -5.79 kcal/mol
USER        vdW + Hbond + desolv Energy     =  -5.86 kcal/mol
USER        Electrostatic Energy            =  +0.07 kcal/mol
USER        Moving Ligand-Fixed Receptor    =  -5.79 kcal/mol
USER        Moving Ligand-Moving Receptor   =  +0.00 kcal/mol
USER    (2) Final Total Internal Energy     =  -1.04 kcal/mol
USER    (3) Torsional Free Energy           =  +0.89 kcal/mol
USER    (4) Unbound System's Energy         =  -1.04 kcal/mol
USER
USER
REMARK  Name = Z13593016
REMARK  4 active torsions:
REMARK  status: ('A' for Active; 'I' for Inactive)
REMARK    1  A    between atoms: C_1  and  C_2
REMARK    2  A    between atoms: C_2  and  C_17
REMARK    3  A    between atoms: N_6  and  C_7
REMARK    4  A    between atoms: C_7  and  C_8
REMARK                            x       y       z     vdW  Elec       q    Type
REMARK                         _______ _______ _______ _____ _____    ______ ____
USER                              x       y       z     vdW  Elec       q    Type
USER                           _______ _______ _______ _____ _____    ______ ____
ROOT
ATOM      1  C   UNL     1     163.833 166.795 173.732 -0.45 -0.01    +0.047 C 
ATOM      2  C   UNL     1     163.732 168.210 174.307 -0.39 -0.03    +0.135 C 
ATOM      3  C   UNL     1     163.841 169.254 173.165 -0.25 -0.06    +0.251 C 
ATOM      4  O   UNL     1     163.010 169.422 172.281 -0.25 +0.07    -0.272 OA
ATOM      5  N   UNL     1     165.004 169.964 173.319 -0.21 +0.09    -0.220 N 
ATOM      6  C   UNL     1     165.624 169.598 174.472 -0.02 -0.18    +0.310 C 
ATOM      7  O   UNL     1     166.587 170.121 175.002 -0.30 +0.21    -0.252 OA
ATOM      8  N   UNL     1     164.950 168.532 175.019 -0.10 +0.11    -0.281 N 
ATOM      9  H   UNL     1     165.240 168.132 175.899 +0.09 -0.06    +0.152 HD
ENDROOT
BRANCH   2  10
ATOM     10  C   UNL     1     162.469 168.395 175.161 -0.31 +0.00    -0.015 A 
ATOM     11  C   UNL     1     161.643 169.518 174.959 -0.36 -0.00    +0.007 A 
ATOM     12  C   UNL     1     160.461 169.695 175.686 -0.44 -0.00    +0.020 A 
ATOM     13  C   UNL     1     160.088 168.751 176.636 -0.44 -0.01    +0.041 A 
ATOM     14 CL   UNL     1     158.626 168.952 177.520 -0.55 +0.03    -0.084 Cl
ATOM     15  C   UNL     1     160.894 167.642 176.872 -0.40 -0.00    +0.020 A 
ATOM     16  C   UNL     1     162.076 167.465 176.144 -0.38 -0.00    +0.007 A 
ENDBRANCH   2  10
BRANCH   5  17
ATOM     17  C   UNL     1     165.347 171.139 172.554 -0.22 -0.05    +0.156 C 
BRANCH  17  18
ATOM     18  C   UNL     1     164.899 172.455 173.142 -0.16 -0.00    +0.006 A 
ATOM     19  C   UNL     1     164.961 173.624 172.380 -0.07 -0.02    +0.128 A 
ATOM     20  F   UNL     1     165.547 173.608 171.174 +0.00 -0.00    -0.205 F 
ATOM     21  C   UNL     1     164.382 174.814 172.822 -0.13 -0.01    +0.039 A 
ATOM     22  C   UNL     1     163.739 174.853 174.056 -0.16 -0.00    +0.003 A 
ATOM     23  C   UNL     1     163.718 173.713 174.860 -0.17 +0.00    +0.001 A 
ATOM     24  C   UNL     1     164.302 172.522 174.410 -0.17 -0.00    +0.008 A 
ENDBRANCH  17  18
ENDBRANCH   5  17
TORSDOF 3
TER
ENDMDL
