MODEL        1
USER    Run = 1
USER
USER    Estimated Free Energy of Binding    =  -5.51 kcal/mol  [=(1)+(2)+(3)-(4)]
USER
USER    (1) Final Intermolecular Energy     =  -6.10 kcal/mol
USER        vdW + Hbond + desolv Energy     =  -5.97 kcal/mol
USER        Electrostatic Energy            =  -0.13 kcal/mol
USER        Moving Ligand-Fixed Receptor    =  -6.10 kcal/mol
USER        Moving Ligand-Moving Receptor   =  +0.00 kcal/mol
USER    (2) Final Total Internal Energy     =  -0.65 kcal/mol
USER    (3) Torsional Free Energy           =  +0.60 kcal/mol
USER    (4) Unbound System's Energy         =  -0.65 kcal/mol
USER
USER
REMARK  Name = Z13600765
REMARK  3 active torsions:
REMARK  status: ('A' for Active; 'I' for Inactive)
REMARK    1  A    between atoms: C_1  and  C_2
REMARK    2  A    between atoms: C_7  and  C_8
REMARK    3  A    between atoms: C_8  and  N_9
REMARK                            x       y       z     vdW  Elec       q    Type
REMARK                         _______ _______ _______ _____ _____    ______ ____
USER                              x       y       z     vdW  Elec       q    Type
USER                           _______ _______ _______ _____ _____    ______ ____
ROOT
ATOM      1  N   UNL     1     163.641 169.834 174.466 -0.15 +0.05    -0.220 N 
ATOM      2  C   UNL     1     163.629 171.202 174.527 -0.05 -0.05    +0.251 C 
ATOM      3  O   UNL     1     162.643 171.905 174.716 -0.08 +0.00    -0.272 OA
ATOM      4  C   UNL     1     165.037 171.715 174.130 -0.18 -0.04    +0.138 C 
ATOM      5  C   UNL     1     164.950 172.253 172.698 -0.18 +0.00    -0.012 A 
ATOM      6  C   UNL     1     164.959 173.644 172.454 -0.12 +0.01    -0.042 A 
ATOM      7  C   UNL     1     164.734 174.117 171.149 -0.23 -0.00    +0.004 A 
ATOM      8  C   UNL     1     164.476 173.238 170.098 -0.33 -0.00    +0.000 A 
ATOM      9  C   UNL     1     164.471 171.870 170.328 -0.29 -0.00    +0.000 A 
ATOM     10  C   UNL     1     165.248 174.645 173.542 -0.11 -0.01    +0.035 C 
ATOM     11  C   UNL     1     165.022 174.113 174.953 -0.16 -0.00    +0.007 C 
ATOM     12  C   UNL     1     164.714 171.384 171.610 -0.26 -0.00    +0.006 A 
ATOM     13  C   UNL     1     165.617 172.721 175.129 -0.05 -0.01    +0.040 C 
ATOM     14  N   UNL     1     165.763 170.463 174.201 -0.13 +0.17    -0.281 N 
ATOM     15  H   UNL     1     166.695 170.337 173.830 -0.29 -0.20    +0.152 HD
ATOM     16  C   UNL     1     164.904 169.385 174.219 -0.14 -0.12    +0.310 C 
ATOM     17  O   UNL     1     165.256 168.249 173.939 -0.34 +0.08    -0.252 OA
ENDROOT
BRANCH   1  18
ATOM     18  C   UNL     1     162.451 169.047 174.238 -0.29 -0.02    +0.153 C 
BRANCH  18  21
ATOM     19  C   UNL     1     159.982 170.517 175.223 -0.49 +0.00    +0.044 C 
ATOM     20  C   UNL     1     160.557 169.328 175.945 -0.39 +0.00    -0.046 A 
ATOM     21  C   UNL     1     161.713 168.657 175.496 -0.25 +0.00    -0.027 A 
ATOM     22  C   UNL     1     162.189 167.552 176.225 -0.39 -0.00    +0.005 A 
ATOM     23  C   UNL     1     161.534 167.113 177.374 -0.45 -0.00    +0.000 A 
ATOM     24  C   UNL     1     160.399 167.780 177.818 -0.14 -0.00    +0.000 A 
ATOM     25  C   UNL     1     159.917 168.882 177.113 -0.51 -0.00    +0.003 A 
ENDBRANCH  18  21
ENDBRANCH   1  18
TORSDOF 2
TER
ENDMDL
