MODEL        1
USER    Run = 1
USER
USER    Estimated Free Energy of Binding    =  -4.70 kcal/mol  [=(1)+(2)+(3)-(4)]
USER
USER    (1) Final Intermolecular Energy     =  -5.90 kcal/mol
USER        vdW + Hbond + desolv Energy     =  -5.46 kcal/mol
USER        Electrostatic Energy            =  -0.44 kcal/mol
USER        Moving Ligand-Fixed Receptor    =  -5.90 kcal/mol
USER        Moving Ligand-Moving Receptor   =  +0.00 kcal/mol
USER    (2) Final Total Internal Energy     =  -1.28 kcal/mol
USER    (3) Torsional Free Energy           =  +1.19 kcal/mol
USER    (4) Unbound System's Energy         =  -1.28 kcal/mol
USER
USER
REMARK  Name = Z13685897
REMARK  4 active torsions:
REMARK  status: ('A' for Active; 'I' for Inactive)
REMARK    1  A    between atoms: N_2  and  C_4
REMARK    2  A    between atoms: C_8  and  C_9
REMARK    3  A    between atoms: C_9  and  S_10
REMARK    4  A    between atoms: S_10  and  C_11
REMARK                            x       y       z     vdW  Elec       q    Type
REMARK                         _______ _______ _______ _____ _____    ______ ____
USER                              x       y       z     vdW  Elec       q    Type
USER                           _______ _______ _______ _____ _____    ______ ____
ROOT
ATOM      1  C   UNL     1     164.454 173.113 175.135 -0.11 -0.01    +0.182 C 
ATOM      2  N   UNL     1     163.271 172.409 175.128 -0.13 -0.00    -0.217 NA
ATOM      3  C   UNL     1     163.379 171.176 174.764 -0.09 -0.02    +0.112 C 
ATOM      4  C   UNL     1     164.649 170.518 174.463 -0.16 -0.02    +0.071 C 
ATOM      5  C   UNL     1     164.421 169.882 173.297 -0.37 +0.01    -0.042 C 
ATOM      6  C   UNL     1     164.813 170.558 171.995 -0.34 -0.01    +0.033 C 
ATOM      7  C   UNL     1     163.753 170.389 170.900 -0.03 -0.00    +0.004 C 
ATOM      8  C   UNL     1     163.374 168.927 170.777 +0.02 -0.00    +0.002 C 
ATOM      9  C   UNL     1     162.645 168.450 172.033 -0.41 -0.01    +0.019 C 
ATOM     10  C   UNL     1     163.171 169.039 173.350 -0.38 -0.02    +0.080 C 
ATOM     11  C   UNL     1     165.833 171.273 174.860 -0.05 -0.13    +0.272 C 
ATOM     12  O   UNL     1     166.906 170.702 175.012 -0.29 +0.23    -0.268 OA
ATOM     13  S   UNL     1     162.030 170.157 174.291 -0.37 +0.01    -0.097 S 
ATOM     14  N   UNL     1     165.635 172.604 175.035 -0.08 +0.05    -0.151 NA
ENDROOT
BRANCH   1  15
ATOM     15  S   UNL     1     164.454 174.869 175.066 -0.22 -0.01    -0.084 S 
BRANCH  15  16
ATOM     16  C   UNL     1     163.602 175.264 173.532 -0.15 -0.03    +0.112 C 
BRANCH  16  19
ATOM     17  C   UNL     1     165.438 174.233 170.321 -0.09 +0.00    +0.273 A 
ATOM     18  C   UNL     1     164.519 174.244 171.386 -0.16 -0.02    +0.088 A 
ATOM     19  C   UNL     1     164.579 175.253 172.363 -0.12 +0.01    -0.031 A 
ATOM     20  C   UNL     1     165.590 176.225 172.256 -0.09 -0.00    +0.005 A 
ATOM     21  C   UNL     1     166.501 176.210 171.193 -0.14 -0.00    +0.007 A 
ATOM     22  C   UNL     1     166.428 175.217 170.217 -0.20 +0.01    +0.084 A 
BRANCH  17  24
ATOM     23  O   UNL     1     166.429 172.753 168.828 -0.54 -0.47    -0.576 OA
ATOM     24  N   UNL     1     165.359 173.176 169.300 -0.41 +0.00    +0.080 N 
ATOM     25  O   UNL     1     164.234 172.777 168.970 -0.55 -0.01    +0.041 OA
ENDBRANCH  17  24
ENDBRANCH  16  19
ENDBRANCH  15  16
ENDBRANCH   1  15
TORSDOF 4
TER
ENDMDL
