MODEL        1
USER    Run = 1
USER
USER    Estimated Free Energy of Binding    =  -4.69 kcal/mol  [=(1)+(2)+(3)-(4)]
USER
USER    (1) Final Intermolecular Energy     =  -6.78 kcal/mol
USER        vdW + Hbond + desolv Energy     =  -6.83 kcal/mol
USER        Electrostatic Energy            =  +0.05 kcal/mol
USER        Moving Ligand-Fixed Receptor    =  -6.78 kcal/mol
USER        Moving Ligand-Moving Receptor   =  +0.00 kcal/mol
USER    (2) Final Total Internal Energy     =  -2.25 kcal/mol
USER    (3) Torsional Free Energy           =  +2.09 kcal/mol
USER    (4) Unbound System's Energy         =  -2.25 kcal/mol
USER
USER
REMARK  Name = Z13678640
REMARK  8 active torsions:
REMARK  status: ('A' for Active; 'I' for Inactive)
REMARK    1  A    between atoms: C_1  and  O_2
REMARK    2  A    between atoms: O_2  and  C_3
REMARK    3  A    between atoms: C_3  and  C_4
REMARK    4  A    between atoms: C_4  and  N_5
REMARK    5  A    between atoms: C_6  and  S_7
REMARK    6  A    between atoms: S_7  and  C_8
REMARK    7  A    between atoms: C_8  and  C_9
REMARK    8  A    between atoms: N_11  and  C_12
REMARK                            x       y       z     vdW  Elec       q    Type
REMARK                         _______ _______ _______ _____ _____    ______ ____
USER                              x       y       z     vdW  Elec       q    Type
USER                           _______ _______ _______ _____ _____    ______ ____
ROOT
ATOM      1  N   UNL     1     152.745 166.631 179.395 -0.13 +0.22    -0.285 N 
ATOM      2  C   UNL     1     153.901 167.398 179.213 -0.19 -0.23    +0.263 C 
ATOM      3  O   UNL     1     154.000 168.571 179.564 -0.31 +0.29    -0.267 OA
ATOM      4  C   UNL     1     154.989 166.706 178.561 -0.37 -0.04    +0.076 A 
ATOM      5  C   UNL     1     154.844 165.359 178.330 -0.17 -0.05    +0.117 A 
ATOM      6  S   UNL     1     156.187 164.722 177.488 -0.37 +0.03    -0.073 S 
ATOM      7  C   UNL     1     156.956 166.243 177.433 -0.44 +0.00    -0.004 A 
ATOM      8  C   UNL     1     158.290 166.448 176.783 -0.19 -0.01    +0.043 C 
ATOM      9  C   UNL     1     158.587 167.950 176.617 -0.31 -0.00    +0.005 C 
ATOM     10  C   UNL     1     158.213 168.747 177.874 -0.37 -0.00    +0.005 C 
ATOM     11  C   UNL     1     156.712 168.643 178.174 -0.32 -0.02    +0.037 C 
ATOM     12  N   UNL     1     153.781 164.595 178.683 -0.21 +0.09    -0.216 NA
ATOM     13  C   UNL     1     156.229 167.226 178.079 -0.46 +0.01    -0.023 A 
ATOM     14  C   UNL     1     152.774 165.247 179.176 -0.26 -0.08    +0.173 C 
ENDROOT
BRANCH   1  15
ATOM     15  C   UNL     1     151.566 167.407 179.821 -0.13 -0.13    +0.155 C 
BRANCH  15  16
ATOM     16  C   UNL     1     151.284 167.288 181.330 -0.16 -0.12    +0.181 C 
BRANCH  16  18
ATOM     17  C   UNL     1     152.476 168.262 183.114 -0.22 -0.21    +0.193 C 
ATOM     18  O   UNL     1     152.516 167.313 182.054 -0.15 +0.32    -0.381 OA
ENDBRANCH  16  18
ENDBRANCH  15  16
ENDBRANCH   1  15
BRANCH  14  19
ATOM     19  S   UNL     1     151.340 164.326 179.600 -0.38 +0.02    -0.078 S 
BRANCH  19  20
ATOM     20  C   UNL     1     150.334 164.411 178.070 -0.20 -0.03    +0.173 C 
BRANCH  20  21
ATOM     21  C   UNL     1     150.554 163.165 177.201 -0.15 -0.05    +0.224 C 
ATOM     22  N   UNL     1     151.862 162.727 177.153 -0.10 +0.09    -0.312 N 
ATOM     23  H   UNL     1     152.432 163.096 177.904 +0.07 -0.04    +0.149 HD
ATOM     24  O   UNL     1     149.657 162.648 176.541 -0.10 +0.05    -0.275 OA
BRANCH  22  25
ATOM     25  C   UNL     1     152.318 161.497 176.522 -0.12 -0.02    +0.073 C 
ATOM     26  C   UNL     1     151.320 160.345 176.734 -0.14 -0.01    +0.022 C 
ATOM     27  C   UNL     1     151.202 159.947 178.206 -0.10 -0.00    +0.002 C 
ATOM     28  C   UNL     1     152.557 159.663 178.855 -0.29 -0.00    +0.000 C 
ATOM     29  C   UNL     1     153.593 160.752 178.587 -0.29 -0.00    +0.002 C 
ATOM     30  C   UNL     1     153.683 161.100 177.099 -0.25 -0.01    +0.022 C 
ENDBRANCH  22  25
ENDBRANCH  20  21
ENDBRANCH  19  20
ENDBRANCH  14  19
TORSDOF 7
TER
ENDMDL
