MODEL        1
USER    Run = 1
USER
USER    Estimated Free Energy of Binding    =  -3.09 kcal/mol  [=(1)+(2)+(3)-(4)]
USER
USER    (1) Final Intermolecular Energy     =  -3.99 kcal/mol
USER        vdW + Hbond + desolv Energy     =  -3.87 kcal/mol
USER        Electrostatic Energy            =  -0.12 kcal/mol
USER        Moving Ligand-Fixed Receptor    =  -3.99 kcal/mol
USER        Moving Ligand-Moving Receptor   =  +0.00 kcal/mol
USER    (2) Final Total Internal Energy     =  -2.54 kcal/mol
USER    (3) Torsional Free Energy           =  +0.89 kcal/mol
USER    (4) Unbound System's Energy         =  -2.54 kcal/mol
USER
USER
REMARK  Name = Z13683372
REMARK  4 active torsions:
REMARK  status: ('A' for Active; 'I' for Inactive)
REMARK    1  A    between atoms: C_1  and  C_2
REMARK    2  A    between atoms: C_2  and  S_3
REMARK    3  A    between atoms: C_2  and  C_18
REMARK    4  A    between atoms: S_3  and  C_4
REMARK                            x       y       z     vdW  Elec       q    Type
REMARK                         _______ _______ _______ _____ _____    ______ ____
USER                              x       y       z     vdW  Elec       q    Type
USER                           _______ _______ _______ _____ _____    ______ ____
ROOT
ATOM      1  S   UNL     1     158.254 178.545 179.521 -0.08 +0.00    -0.076 S 
ENDROOT
BRANCH   1   2
ATOM      2  C   UNL     1     157.338 177.067 179.772 -0.01 -0.01    +0.182 C 
ATOM      3  N   UNL     1     156.701 176.558 178.670 -0.09 +0.01    -0.217 NA
ATOM      4  C   UNL     1     155.844 175.631 178.919 -0.19 -0.02    +0.112 C 
ATOM      5  C   UNL     1     155.618 175.074 180.246 -0.28 -0.02    +0.071 C 
ATOM      6  C   UNL     1     154.281 174.990 180.351 -0.18 +0.01    -0.042 C 
ATOM      7  C   UNL     1     153.583 176.057 181.153 -0.16 -0.00    +0.033 C 
ATOM      8  C   UNL     1     152.093 175.826 181.251 -0.13 -0.00    +0.004 C 
ATOM      9  C   UNL     1     151.473 175.731 179.859 -0.11 -0.00    +0.002 C 
ATOM     10  C   UNL     1     152.092 174.629 179.001 -0.17 -0.01    +0.019 C 
ATOM     11  C   UNL     1     153.606 174.432 179.126 -0.18 -0.05    +0.080 C 
ATOM     12  C   UNL     1     156.557 175.508 181.286 -0.19 -0.02    +0.272 C 
ATOM     13  O   UNL     1     156.635 174.897 182.344 -0.85 -0.06    -0.268 OA
ATOM     14  S   UNL     1     154.644 175.094 177.765 -0.40 +0.05    -0.097 S 
ATOM     15  N   UNL     1     157.304 176.601 180.969 -0.13 +0.02    -0.151 NA
ENDBRANCH   1   2
BRANCH   1  17
ATOM     16  C   UNL     1     157.186 179.734 181.854 -0.03 -0.00    +0.029 C 
ATOM     17  C   UNL     1     157.161 179.772 180.325 +0.02 -0.02    +0.137 C 
BRANCH  17  18
ATOM     18  C   UNL     1     155.725 179.662 179.807 +0.02 -0.03    +0.231 C 
ATOM     19  N   UNL     1     155.601 178.871 178.677 +0.01 +0.03    -0.268 N 
ATOM     20  H   UNL     1     156.432 178.714 178.120 +0.04 -0.00    +0.156 HD
ATOM     21  C   UNL     1     154.367 178.735 178.019 -0.02 -0.03    +0.143 A 
ATOM     22  C   UNL     1     154.333 178.795 176.620 -0.12 -0.02    +0.082 A 
ATOM     23 CL   UNL     1     155.763 179.041 175.683 -0.24 -0.00    -0.080 Cl
ATOM     24  C   UNL     1     153.102 178.740 175.969 -0.15 -0.01    +0.045 A 
ATOM     25  C   UNL     1     151.949 178.581 176.728 -0.10 -0.02    +0.060 A 
ATOM     26 CL   UNL     1     150.409 178.516 175.975 -0.15 +0.04    -0.082 Cl
ATOM     27  C   UNL     1     152.070 178.485 178.105 -0.02 -0.04    +0.133 A 
ATOM     28  N   UNL     1     153.250 178.566 178.762 -0.00 +0.06    -0.237 NA
ATOM     29  O   UNL     1     154.810 180.309 180.309 +0.00 +0.04    -0.274 OA
ENDBRANCH  17  18
ENDBRANCH   1  17
TORSDOF 3
TER
ENDMDL
