MODEL        1
USER    Run = 1
USER
USER    Estimated Free Energy of Binding    =  -6.43 kcal/mol  [=(1)+(2)+(3)-(4)]
USER
USER    (1) Final Intermolecular Energy     =  -7.03 kcal/mol
USER        vdW + Hbond + desolv Energy     =  -7.02 kcal/mol
USER        Electrostatic Energy            =  -0.01 kcal/mol
USER        Moving Ligand-Fixed Receptor    =  -7.03 kcal/mol
USER        Moving Ligand-Moving Receptor   =  +0.00 kcal/mol
USER    (2) Final Total Internal Energy     =  -0.36 kcal/mol
USER    (3) Torsional Free Energy           =  +0.60 kcal/mol
USER    (4) Unbound System's Energy         =  -0.36 kcal/mol
USER
USER
REMARK  Name = Z13685820
REMARK  2 active torsions:
REMARK  status: ('A' for Active; 'I' for Inactive)
REMARK    1  A    between atoms: C_6  and  S_7
REMARK    2  A    between atoms: S_7  and  C_8
REMARK                            x       y       z     vdW  Elec       q    Type
REMARK                         _______ _______ _______ _____ _____    ______ ____
USER                              x       y       z     vdW  Elec       q    Type
USER                           _______ _______ _______ _____ _____    ______ ____
ROOT
ATOM      1  C   UNL     1     159.071 168.621 177.368 -0.38 -0.06    +0.182 C 
ATOM      2  N   UNL     1     159.485 169.680 176.605 -0.14 +0.04    -0.217 NA
ATOM      3  C   UNL     1     160.623 169.542 176.030 -0.43 -0.01    +0.112 C 
ATOM      4  C   UNL     1     161.463 168.379 176.198 -0.40 -0.01    +0.071 C 
ATOM      5  C   UNL     1     162.397 168.280 175.243 -0.36 +0.00    -0.042 C 
ATOM      6  C   UNL     1     163.033 166.981 174.858 -0.31 -0.01    +0.033 C 
ATOM      7  C   UNL     1     164.000 167.120 173.690 -0.50 -0.00    +0.004 C 
ATOM      8  C   UNL     1     163.398 167.953 172.561 -0.40 -0.00    +0.002 C 
ATOM      9  C   UNL     1     163.035 169.379 172.991 -0.39 -0.00    +0.019 C 
ATOM     10  C   UNL     1     162.695 169.534 174.477 -0.34 -0.01    +0.080 C 
ATOM     11  C   UNL     1     161.063 167.437 177.241 -0.28 -0.04    +0.272 C 
ATOM     12  O   UNL     1     161.823 166.576 177.652 -0.37 +0.04    -0.268 OA
ATOM     13  S   UNL     1     161.257 170.625 174.820 -0.47 +0.00    -0.097 S 
ATOM     14  N   UNL     1     159.784 167.593 177.687 -0.08 +0.04    -0.151 NA
ENDROOT
BRANCH   1  15
ATOM     15  S   UNL     1     157.385 168.636 177.836 -0.62 +0.04    -0.074 S 
BRANCH  15  18
ATOM     16  O   UNL     1     154.969 166.763 178.754 -0.35 +0.15    -0.250 OA
ATOM     17  C   UNL     1     155.843 166.327 178.021 -0.24 -0.16    +0.321 C 
ATOM     18  C   UNL     1     156.701 167.132 177.084 -0.36 -0.10    +0.166 C 
ATOM     19  C   UNL     1     157.662 166.125 176.483 -0.30 -0.03    +0.067 C 
ATOM     20  C   UNL     1     157.286 164.802 177.115 -0.25 -0.10    +0.234 C 
ATOM     21  O   UNL     1     156.083 164.995 177.854 -0.06 +0.20    -0.464 OA
ENDBRANCH  15  18
ENDBRANCH   1  15
TORSDOF 2
TER
ENDMDL
