MODEL        1
USER    Run = 1
USER
USER    Estimated Free Energy of Binding    =  -7.27 kcal/mol  [=(1)+(2)+(3)-(4)]
USER
USER    (1) Final Intermolecular Energy     =  -8.76 kcal/mol
USER        vdW + Hbond + desolv Energy     =  -8.71 kcal/mol
USER        Electrostatic Energy            =  -0.05 kcal/mol
USER        Moving Ligand-Fixed Receptor    =  -8.76 kcal/mol
USER        Moving Ligand-Moving Receptor   =  +0.00 kcal/mol
USER    (2) Final Total Internal Energy     =  -0.41 kcal/mol
USER    (3) Torsional Free Energy           =  +1.49 kcal/mol
USER    (4) Unbound System's Energy         =  -0.41 kcal/mol
USER
USER
REMARK  Name = Z13685746
REMARK  6 active torsions:
REMARK  status: ('A' for Active; 'I' for Inactive)
REMARK    1  A    between atoms: C_1  and  O_2
REMARK    2  A    between atoms: O_2  and  C_3
REMARK    3  A    between atoms: C_3  and  C_5
REMARK    4  A    between atoms: C_8  and  C_9
REMARK    5  A    between atoms: C_9  and  S_10
REMARK    6  A    between atoms: S_10  and  C_11
REMARK                            x       y       z     vdW  Elec       q    Type
REMARK                         _______ _______ _______ _____ _____    ______ ____
USER                              x       y       z     vdW  Elec       q    Type
USER                           _______ _______ _______ _____ _____    ______ ____
ROOT
ATOM      1  C   UNL     1     158.585 168.221 177.150 -0.37 -0.07    +0.182 C 
ATOM      2  N   UNL     1     158.944 169.341 176.435 -0.28 +0.06    -0.217 NA
ATOM      3  C   UNL     1     160.149 169.379 175.993 -0.41 -0.01    +0.112 C 
ATOM      4  C   UNL     1     161.135 168.354 176.247 -0.39 -0.01    +0.071 C 
ATOM      5  C   UNL     1     162.232 168.483 175.482 -0.35 +0.00    -0.042 C 
ATOM      6  C   UNL     1     163.216 167.381 175.232 -0.39 -0.01    +0.033 C 
ATOM      7  C   UNL     1     164.316 167.769 174.246 -0.51 -0.00    +0.004 C 
ATOM      8  C   UNL     1     163.745 168.475 173.019 -0.45 -0.00    +0.002 C 
ATOM      9  C   UNL     1     162.999 169.767 173.367 -0.34 -0.00    +0.019 C 
ATOM     10  C   UNL     1     162.410 169.805 174.785 -0.31 -0.01    +0.080 C 
ATOM     11  C   UNL     1     160.732 167.323 177.211 -0.22 -0.05    +0.272 C 
ATOM     12  O   UNL     1     161.569 166.592 177.727 -0.35 +0.05    -0.268 OA
ATOM     13  S   UNL     1     160.759 170.600 174.905 -0.54 -0.00    -0.097 S 
ATOM     14  N   UNL     1     159.394 167.279 177.517 -0.17 +0.04    -0.151 NA
ENDROOT
BRANCH   1  15
ATOM     15  S   UNL     1     156.860 168.107 177.514 -0.64 +0.05    -0.084 S 
BRANCH  15  16
ATOM     16  C   UNL     1     156.563 166.330 177.715 -0.41 -0.05    +0.112 C 
BRANCH  16  20
ATOM     17  C   UNL     1     152.834 165.501 179.853 -0.27 -0.03    +0.059 A 
ATOM     18  C   UNL     1     153.297 164.635 178.849 -0.30 -0.01    +0.015 A 
ATOM     19  C   UNL     1     154.515 164.885 178.188 -0.21 -0.00    +0.005 A 
ATOM     20  C   UNL     1     155.294 166.023 178.497 -0.36 +0.02    -0.037 A 
ATOM     21  C   UNL     1     154.837 166.856 179.531 -0.41 -0.00    +0.005 A 
ATOM     22  C   UNL     1     153.616 166.601 180.201 -0.36 -0.01    +0.015 A 
BRANCH  17  23
ATOM     23  C   UNL     1     151.492 165.227 180.448 -0.16 -0.11    +0.339 C 
ATOM     24  O   UNL     1     151.174 165.601 181.565 -0.29 +0.09    -0.245 OA
BRANCH  23  26
ATOM     25  C   UNL     1     149.911 165.382 178.737 -0.13 -0.06    +0.280 C 
ATOM     26  O   UNL     1     150.697 164.538 179.590 -0.10 +0.06    -0.465 OA
ENDBRANCH  23  26
ENDBRANCH  17  23
ENDBRANCH  16  20
ENDBRANCH  15  16
ENDBRANCH   1  15
TORSDOF 5
TER
ENDMDL
