MODEL        1
USER    Run = 1
USER
USER    Estimated Free Energy of Binding    =  -4.49 kcal/mol  [=(1)+(2)+(3)-(4)]
USER
USER    (1) Final Intermolecular Energy     =  -5.98 kcal/mol
USER        vdW + Hbond + desolv Energy     =  -5.92 kcal/mol
USER        Electrostatic Energy            =  -0.06 kcal/mol
USER        Moving Ligand-Fixed Receptor    =  -5.98 kcal/mol
USER        Moving Ligand-Moving Receptor   =  +0.00 kcal/mol
USER    (2) Final Total Internal Energy     =  -2.28 kcal/mol
USER    (3) Torsional Free Energy           =  +1.49 kcal/mol
USER    (4) Unbound System's Energy         =  -2.28 kcal/mol
USER
USER
REMARK  Name = Z13607373
REMARK  6 active torsions:
REMARK  status: ('A' for Active; 'I' for Inactive)
REMARK    1  A    between atoms: C_1  and  C_2
REMARK    2  A    between atoms: C_5  and  N_6
REMARK    3  A    between atoms: C_7  and  C_9
REMARK    4  A    between atoms: C_9  and  O_10
REMARK    5  A    between atoms: O_10  and  C_11
REMARK    6  A    between atoms: N_16  and  C_20
REMARK                            x       y       z     vdW  Elec       q    Type
REMARK                         _______ _______ _______ _____ _____    ______ ____
USER                              x       y       z     vdW  Elec       q    Type
USER                           _______ _______ _______ _____ _____    ______ ____
ROOT
ATOM      1  C   UNL     1     164.840 171.610 173.042 -0.07 -0.06    +0.229 A 
ATOM      2  C   UNL     1     164.012 170.546 173.364 -0.20 -0.03    +0.100 A 
ATOM      3  C   UNL     1     163.150 170.706 174.433 -0.10 -0.03    +0.170 A 
ATOM      4  N   UNL     1     162.474 169.489 174.560 -0.23 +0.03    -0.214 N 
ATOM      5  N   UNL     1     162.861 168.603 173.586 -0.27 +0.03    -0.172 NA
ATOM      6  N   UNL     1     163.046 171.834 175.173 -0.14 +0.01    -0.216 NA
ATOM      7  C   UNL     1     163.886 172.802 174.756 -0.03 -0.01    +0.227 A 
ATOM      8  C   UNL     1     163.789 169.252 172.887 -0.26 -0.04    +0.150 A 
ATOM      9  N   UNL     1     164.777 172.754 173.746 -0.08 +0.04    -0.201 NA
ENDROOT
BRANCH   4  10
ATOM     10  C   UNL     1     161.520 169.074 175.534 -0.30 -0.00    +0.068 A 
ATOM     11  C   UNL     1     160.290 169.752 175.610 -0.44 -0.00    +0.028 A 
ATOM     12  C   UNL     1     159.315 169.352 176.526 -0.37 -0.00    +0.002 A 
ATOM     13  C   UNL     1     159.559 168.277 177.374 -0.44 -0.00    +0.000 A 
ATOM     14  C   UNL     1     160.780 167.604 177.314 -0.45 -0.00    +0.002 A 
ATOM     15  C   UNL     1     161.761 168.001 176.399 -0.37 -0.00    +0.028 A 
ENDBRANCH   4  10
BRANCH   1  16
ATOM     16  O   UNL     1     165.732 171.450 172.011 -0.10 +0.07    -0.466 OA
BRANCH  16  17
ATOM     17  C   UNL     1     165.171 171.628 170.714 -0.07 -0.01    +0.326 C 
BRANCH  17  20
ATOM     18  N   UNL     1     165.768 173.957 171.105 -0.09 -0.01    -0.283 N 
ATOM     19  H   UNL     1     165.597 173.661 172.060 +0.09 -0.02    +0.155 HD
ATOM     20  C   UNL     1     165.696 172.948 170.152 -0.09 +0.07    +0.255 C 
ATOM     21  O   UNL     1     165.992 173.047 168.964 -0.84 -0.11    -0.272 OA
BRANCH  18  26
ATOM     22  C   UNL     1     167.147 179.471 170.411 -0.11 -0.00    +0.044 C 
ATOM     23  C   UNL     1     166.824 178.019 170.598 -0.15 +0.00    -0.050 A 
ATOM     24  C   UNL     1     166.184 177.576 171.760 -0.09 -0.00    +0.005 A 
ATOM     25  C   UNL     1     165.840 176.226 171.910 -0.09 -0.00    +0.023 A 
ATOM     26  C   UNL     1     166.150 175.297 170.909 -0.18 -0.00    +0.034 A 
ATOM     27  C   UNL     1     166.802 175.743 169.759 -0.24 +0.00    +0.023 A 
ATOM     28  C   UNL     1     167.133 177.091 169.602 -0.24 -0.00    +0.005 A 
ENDBRANCH  18  26
ENDBRANCH  17  20
ENDBRANCH  16  17
ENDBRANCH   1  16
TORSDOF 5
TER
ENDMDL
