MODEL        1
USER    Run = 1
USER
USER    Estimated Free Energy of Binding    =  -4.74 kcal/mol  [=(1)+(2)+(3)-(4)]
USER
USER    (1) Final Intermolecular Energy     =  -5.93 kcal/mol
USER        vdW + Hbond + desolv Energy     =  -5.97 kcal/mol
USER        Electrostatic Energy            =  +0.04 kcal/mol
USER        Moving Ligand-Fixed Receptor    =  -5.93 kcal/mol
USER        Moving Ligand-Moving Receptor   =  +0.00 kcal/mol
USER    (2) Final Total Internal Energy     =  -1.76 kcal/mol
USER    (3) Torsional Free Energy           =  +1.19 kcal/mol
USER    (4) Unbound System's Energy         =  -1.76 kcal/mol
USER
USER
REMARK  Name = Z13646492
REMARK  6 active torsions:
REMARK  status: ('A' for Active; 'I' for Inactive)
REMARK    1  A    between atoms: C_1  and  C_2
REMARK    2  A    between atoms: N_3  and  C_16
REMARK    3  A    between atoms: N_6  and  C_7
REMARK    4  A    between atoms: C_7  and  C_8
REMARK    5  A    between atoms: N_10  and  C_11
REMARK    6  A    between atoms: C_19  and  C_20
REMARK                            x       y       z     vdW  Elec       q    Type
REMARK                         _______ _______ _______ _____ _____    ______ ____
USER                              x       y       z     vdW  Elec       q    Type
USER                           _______ _______ _______ _____ _____    ______ ____
ROOT
ATOM      1  C   UNL     1     162.992 166.685 174.715 -0.13 -0.01    +0.038 C 
ATOM      2  C   UNL     1     162.956 167.842 175.703 -0.20 -0.03    +0.166 C 
ATOM      3  C   UNL     1     161.866 167.660 176.761 -0.26 -0.02    +0.244 C 
ATOM      4  O   UNL     1     161.718 166.666 177.460 -0.36 +0.04    -0.273 OA
ATOM      5  N   UNL     1     161.142 168.811 176.848 -0.31 +0.02    -0.215 N 
ATOM      6  C   UNL     1     161.520 169.695 175.877 -0.17 -0.02    +0.317 C 
ATOM      7  O   UNL     1     161.059 170.819 175.742 -0.36 -0.01    -0.252 OA
ATOM      8  N   UNL     1     162.550 169.106 175.136 -0.15 +0.03    -0.243 N 
ENDROOT
BRANCH   8   9
ATOM      9  C   UNL     1     163.185 169.719 174.039 -0.30 -0.01    +0.039 A 
ATOM     10  C   UNL     1     163.920 170.895 174.226 -0.19 -0.01    +0.024 A 
ATOM     11  C   UNL     1     164.546 171.519 173.143 -0.21 -0.00    +0.005 A 
ATOM     12  C   UNL     1     164.492 170.946 171.868 -0.24 +0.01    -0.050 A 
ATOM     13  C   UNL     1     165.228 171.583 170.727 -0.28 -0.00    +0.044 C 
ATOM     14  C   UNL     1     163.748 169.777 171.682 -0.26 -0.00    +0.005 A 
ATOM     15  C   UNL     1     163.077 169.181 172.755 -0.34 -0.01    +0.024 A 
ENDBRANCH   8   9
BRANCH   5  16
ATOM     16  C   UNL     1     160.023 169.039 177.742 -0.29 -0.06    +0.213 C 
BRANCH  16  17
ATOM     17  C   UNL     1     158.770 168.409 177.136 -0.34 -0.08    +0.231 C 
ATOM     18  N   UNL     1     158.788 167.022 177.060 -0.17 +0.09    -0.311 N 
ATOM     19  H   UNL     1     159.559 166.495 177.451 +0.11 -0.03    +0.149 HD
ATOM     20  O   UNL     1     157.818 169.078 176.736 -0.29 +0.18    -0.274 OA
BRANCH  18  21
ATOM     21  C   UNL     1     157.634 166.324 176.578 -0.35 -0.03    +0.073 C 
ATOM     22  C   UNL     1     156.375 166.104 177.368 -0.48 -0.01    +0.024 C 
ATOM     23  C   UNL     1     157.325 164.962 177.139 -0.43 -0.01    +0.024 C 
ENDBRANCH  18  21
ENDBRANCH  16  17
ENDBRANCH   5  16
TORSDOF 4
TER
ENDMDL
