MODEL        1
USER    Run = 1
USER
USER    Estimated Free Energy of Binding    =  -5.81 kcal/mol  [=(1)+(2)+(3)-(4)]
USER
USER    (1) Final Intermolecular Energy     =  -7.30 kcal/mol
USER        vdW + Hbond + desolv Energy     =  -7.27 kcal/mol
USER        Electrostatic Energy            =  -0.04 kcal/mol
USER        Moving Ligand-Fixed Receptor    =  -7.30 kcal/mol
USER        Moving Ligand-Moving Receptor   =  +0.00 kcal/mol
USER    (2) Final Total Internal Energy     =  -1.18 kcal/mol
USER    (3) Torsional Free Energy           =  +1.49 kcal/mol
USER    (4) Unbound System's Energy         =  -1.18 kcal/mol
USER
USER
REMARK  Name = Z13646133
REMARK  8 active torsions:
REMARK  status: ('A' for Active; 'I' for Inactive)
REMARK    1  A    between atoms: C_1  and  C_2
REMARK    2  A    between atoms: N_3  and  C_21
REMARK    3  A    between atoms: N_6  and  C_7
REMARK    4  A    between atoms: C_7  and  C_8
REMARK    5  A    between atoms: N_10  and  C_11
REMARK    6  A    between atoms: N_10  and  C_12
REMARK    7  A    between atoms: C_12  and  C_13
REMARK    8  A    between atoms: C_24  and  C_25
REMARK                            x       y       z     vdW  Elec       q    Type
REMARK                         _______ _______ _______ _____ _____    ______ ____
USER                              x       y       z     vdW  Elec       q    Type
USER                           _______ _______ _______ _____ _____    ______ ____
ROOT
ATOM      1  C   UNL     1     159.306 170.450 175.026 -0.30 -0.00    +0.038 C 
ATOM      2  C   UNL     1     160.350 170.000 176.039 -0.35 -0.01    +0.166 C 
ATOM      3  C   UNL     1     161.726 169.884 175.381 -0.24 -0.01    +0.244 C 
ATOM      4  O   UNL     1     162.259 170.742 174.690 -0.24 +0.02    -0.273 OA
ATOM      5  N   UNL     1     162.261 168.667 175.684 -0.19 +0.02    -0.215 N 
ATOM      6  C   UNL     1     161.358 167.890 176.345 -0.20 -0.03    +0.317 C 
ATOM      7  O   UNL     1     161.539 166.733 176.693 -0.22 +0.03    -0.252 OA
ATOM      8  N   UNL     1     160.192 168.642 176.510 -0.30 +0.03    -0.243 N 
ENDROOT
BRANCH   8   9
ATOM      9  C   UNL     1     158.998 168.125 177.040 -0.42 -0.01    +0.039 A 
ATOM     10  C   UNL     1     158.012 168.998 177.509 -0.39 -0.01    +0.024 A 
ATOM     11  C   UNL     1     156.806 168.502 178.003 -0.37 -0.00    +0.005 A 
ATOM     12  C   UNL     1     156.550 167.128 177.983 -0.42 +0.03    -0.050 A 
ATOM     13  C   UNL     1     155.213 166.611 178.420 -0.46 -0.02    +0.044 C 
ATOM     14  C   UNL     1     157.551 166.255 177.535 -0.39 -0.00    +0.005 A 
ATOM     15  C   UNL     1     158.780 166.749 177.091 -0.22 -0.01    +0.024 A 
ENDBRANCH   8   9
BRANCH   5  16
ATOM     16  C   UNL     1     163.520 168.185 175.169 -0.11 -0.05    +0.213 C 
BRANCH  16  17
ATOM     17  C   UNL     1     163.732 168.659 173.728 -0.29 -0.05    +0.234 C 
ATOM     18  N   UNL     1     164.707 169.623 173.471 -0.17 +0.10    -0.299 N 
ATOM     19  C   UNL     1     165.631 170.174 174.455 -0.22 -0.08    +0.132 C 
ATOM     20  O   UNL     1     163.031 168.194 172.826 -0.27 +0.06    -0.274 OA
BRANCH  18  21
ATOM     21  C   UNL     1     164.898 170.055 172.084 -0.19 -0.04    +0.142 C 
BRANCH  21  22
ATOM     22  C   UNL     1     164.904 171.547 171.808 -0.25 +0.01    -0.030 A 
ATOM     23  C   UNL     1     165.195 171.955 170.489 -0.28 +0.00    +0.005 A 
ATOM     24  C   UNL     1     165.211 173.307 170.137 -0.33 +0.00    +0.000 A 
ATOM     25  C   UNL     1     164.937 174.278 171.092 -0.23 -0.00    +0.000 A 
ATOM     26  C   UNL     1     164.656 173.895 172.404 -0.14 -0.00    +0.000 A 
ATOM     27  C   UNL     1     164.646 172.540 172.759 -0.10 -0.00    +0.005 A 
ENDBRANCH  21  22
ENDBRANCH  18  21
ENDBRANCH  16  17
ENDBRANCH   5  16
TORSDOF 5
TER
ENDMDL
