MODEL        1
USER    Run = 1
USER
USER    Estimated Free Energy of Binding    =  -5.53 kcal/mol  [=(1)+(2)+(3)-(4)]
USER
USER    (1) Final Intermolecular Energy     =  -7.02 kcal/mol
USER        vdW + Hbond + desolv Energy     =  -6.94 kcal/mol
USER        Electrostatic Energy            =  -0.08 kcal/mol
USER        Moving Ligand-Fixed Receptor    =  -7.02 kcal/mol
USER        Moving Ligand-Moving Receptor   =  +0.00 kcal/mol
USER    (2) Final Total Internal Energy     =  -0.48 kcal/mol
USER    (3) Torsional Free Energy           =  +1.49 kcal/mol
USER    (4) Unbound System's Energy         =  -0.48 kcal/mol
USER
USER
REMARK  Name = Z13698141
REMARK  6 active torsions:
REMARK  status: ('A' for Active; 'I' for Inactive)
REMARK    1  A    between atoms: C_1  and  C_2
REMARK    2  A    between atoms: C_2  and  C_3
REMARK    3  A    between atoms: C_6  and  S_7
REMARK    4  A    between atoms: S_7  and  C_8
REMARK    5  A    between atoms: C_8  and  C_9
REMARK    6  A    between atoms: N_11  and  C_12
REMARK                            x       y       z     vdW  Elec       q    Type
REMARK                         _______ _______ _______ _____ _____    ______ ____
USER                              x       y       z     vdW  Elec       q    Type
USER                           _______ _______ _______ _____ _____    ______ ____
ROOT
ATOM      1  S   UNL     1     160.522 168.240 177.316 -0.62 +0.02    -0.096 S 
ENDROOT
BRANCH   1   6
ATOM      2  C   UNL     1     163.556 167.358 173.933 -0.40 +0.00    -0.008 A 
ATOM      3  S   UNL     1     163.962 168.917 173.356 -0.54 +0.02    -0.073 S 
ATOM      4  C   UNL     1     162.905 169.678 174.459 -0.22 -0.02    +0.113 A 
ATOM      5  C   UNL     1     162.246 168.775 175.275 -0.28 -0.00    +0.040 A 
ATOM      6  C   UNL     1     161.374 169.336 176.218 -0.28 -0.01    +0.109 A 
ATOM      7  N   UNL     1     161.209 170.671 176.288 -0.26 -0.00    -0.229 NA
ATOM      8  C   UNL     1     161.905 171.426 175.420 -0.15 +0.01    +0.223 A 
ATOM      9  N   UNL     1     162.770 171.016 174.487 -0.12 +0.03    -0.228 NA
ATOM     10  C   UNL     1     162.630 167.428 174.952 -0.22 -0.00    +0.024 A 
BRANCH   2  12
ATOM     11  C   UNL     1     163.435 165.638 172.122 -0.35 -0.00    +0.009 C 
ATOM     12  C   UNL     1     164.184 166.127 173.352 -0.36 -0.01    +0.039 C 
ENDBRANCH   2  12
ENDBRANCH   1   6
BRANCH   1  13
ATOM     13  C   UNL     1     159.013 167.860 176.373 +0.00 -0.04    +0.171 C 
BRANCH  13  14
ATOM     14  C   UNL     1     158.055 167.069 177.260 -0.25 -0.09    +0.227 C 
ATOM     15  N   UNL     1     156.762 167.580 177.281 -0.26 +0.18    -0.285 N 
ATOM     16  H   UNL     1     156.608 168.421 176.736 -0.39 -0.16    +0.155 HD
ATOM     17  O   UNL     1     158.439 166.057 177.843 -0.18 +0.09    -0.275 OA
BRANCH  15  18
ATOM     18  C   UNL     1     155.662 167.109 178.032 -0.44 -0.02    +0.036 A 
ATOM     19  C   UNL     1     155.311 165.761 177.893 -0.25 -0.03    +0.061 A 
ATOM     20  C   UNL     1     154.235 165.241 178.612 -0.22 -0.06    +0.125 A 
ATOM     21  F   UNL     1     153.917 163.948 178.475 -0.07 +0.08    -0.205 F 
ATOM     22  C   UNL     1     153.489 166.038 179.469 -0.32 -0.02    +0.038 A 
ATOM     23  C   UNL     1     153.823 167.382 179.605 -0.36 -0.00    +0.005 A 
ATOM     24  C   UNL     1     154.904 167.913 178.890 -0.40 -0.02    +0.023 A 
ENDBRANCH  15  18
ENDBRANCH  13  14
ENDBRANCH   1  13
TORSDOF 5
TER
ENDMDL
