MODEL        1
USER    Run = 1
USER
USER    Estimated Free Energy of Binding    =  -3.84 kcal/mol  [=(1)+(2)+(3)-(4)]
USER
USER    (1) Final Intermolecular Energy     =  -5.93 kcal/mol
USER        vdW + Hbond + desolv Energy     =  -5.92 kcal/mol
USER        Electrostatic Energy            =  -0.01 kcal/mol
USER        Moving Ligand-Fixed Receptor    =  -5.93 kcal/mol
USER        Moving Ligand-Moving Receptor   =  +0.00 kcal/mol
USER    (2) Final Total Internal Energy     =  -1.58 kcal/mol
USER    (3) Torsional Free Energy           =  +2.09 kcal/mol
USER    (4) Unbound System's Energy         =  -1.58 kcal/mol
USER
USER
REMARK  Name = Z13656178
REMARK  10 active torsions:
REMARK  status: ('A' for Active; 'I' for Inactive)
REMARK    1  A    between atoms: C_1  and  C_2
REMARK    2  A    between atoms: C_2  and  C_3
REMARK    3  A    between atoms: C_3  and  C_4
REMARK    4  A    between atoms: N_12  and  C_13
REMARK    5  A    between atoms: C_13  and  C_14
REMARK    6  A    between atoms: N_16  and  C_17
REMARK    7  A    between atoms: C_20  and  O_21
REMARK    8  A    between atoms: O_21  and  C_22
REMARK    9  A    between atoms: C_24  and  O_25
REMARK   10  A    between atoms: O_25  and  C_26
REMARK                            x       y       z     vdW  Elec       q    Type
REMARK                         _______ _______ _______ _____ _____    ______ ____
USER                              x       y       z     vdW  Elec       q    Type
USER                           _______ _______ _______ _____ _____    ______ ____
ROOT
ATOM      1  C   UNL     1     163.249 169.238 173.123 -0.25 -0.05    +0.237 C 
ATOM      2  N   UNL     1     163.321 169.199 174.507 -0.15 +0.06    -0.281 N 
ATOM      3  H   UNL     1     164.070 169.711 174.964 +0.13 -0.05    +0.155 HD
ATOM      4  O   UNL     1     162.221 169.022 172.486 -0.27 +0.05    -0.274 OA
ENDROOT
BRANCH   2   5
ATOM      5  C   UNL     1     162.181 168.947 175.302 -0.24 -0.01    +0.076 A 
ATOM      6  C   UNL     1     161.209 169.942 175.478 -0.33 -0.00    +0.145 A 
ATOM      7  C   UNL     1     160.094 169.710 176.302 -0.32 -0.01    +0.093 A 
ATOM      8  C   UNL     1     159.932 168.471 176.931 -0.38 -0.03    +0.124 A 
ATOM      9  C   UNL     1     160.915 167.495 176.779 -0.34 -0.01    +0.048 A 
ATOM     10  C   UNL     1     162.020 167.725 175.957 -0.35 -0.00    +0.030 A 
BRANCH   6  11
ATOM     11  O   UNL     1     161.271 171.177 174.873 -0.10 -0.02    -0.493 OA
ATOM     12  C   UNL     1     161.991 172.142 175.643 -0.16 +0.05    +0.277 C 
ENDBRANCH   6  11
BRANCH   8  13
ATOM     13  O   UNL     1     158.893 168.128 177.750 -0.03 +0.17    -0.495 OA
ATOM     14  C   UNL     1     157.656 168.768 177.460 -0.27 -0.15    +0.277 C 
ENDBRANCH   8  13
ENDBRANCH   2   5
BRANCH   1  15
ATOM     15  C   UNL     1     164.499 169.715 172.420 -0.18 -0.06    +0.219 C 
BRANCH  15  17
ATOM     16  C   UNL     1     165.151 171.970 173.380 -0.13 -0.03    +0.111 A 
ATOM     17  N   UNL     1     164.675 171.158 172.366 -0.10 +0.08    -0.319 N 
ATOM     18  C   UNL     1     164.707 171.896 171.190 -0.19 -0.01    +0.069 A 
ATOM     19  C   UNL     1     165.283 173.106 171.567 -0.14 -0.01    +0.089 A 
ATOM     20  C   UNL     1     165.559 174.082 170.598 -0.24 +0.00    +0.030 A 
ATOM     21  C   UNL     1     165.232 173.820 169.265 -0.33 -0.00    +0.002 A 
ATOM     22  C   UNL     1     164.622 172.618 168.910 -0.39 -0.00    +0.002 A 
ATOM     23  C   UNL     1     164.343 171.628 169.865 -0.24 -0.01    +0.028 A 
ATOM     24  N   UNL     1     165.524 173.141 172.909 -0.04 +0.05    -0.232 NA
BRANCH  16  25
ATOM     25  C   UNL     1     165.281 171.592 174.822 -0.18 -0.03    +0.074 C 
BRANCH  25  27
ATOM     26  C   UNL     1     167.129 170.944 176.459 -0.42 -0.00    +0.004 C 
ATOM     27  C   UNL     1     166.518 170.727 175.083 -0.29 -0.00    +0.004 C 
ENDBRANCH  25  27
ENDBRANCH  16  25
ENDBRANCH  15  17
ENDBRANCH   1  15
TORSDOF 7
TER
ENDMDL
