MODEL        1
USER    Run = 1
USER
USER    Estimated Free Energy of Binding    =  -4.64 kcal/mol  [=(1)+(2)+(3)-(4)]
USER
USER    (1) Final Intermolecular Energy     =  -5.54 kcal/mol
USER        vdW + Hbond + desolv Energy     =  -5.52 kcal/mol
USER        Electrostatic Energy            =  -0.02 kcal/mol
USER        Moving Ligand-Fixed Receptor    =  -5.54 kcal/mol
USER        Moving Ligand-Moving Receptor   =  +0.00 kcal/mol
USER    (2) Final Total Internal Energy     =  -0.85 kcal/mol
USER    (3) Torsional Free Energy           =  +0.89 kcal/mol
USER    (4) Unbound System's Energy         =  -0.85 kcal/mol
USER
USER
REMARK  Name = Z13643092
REMARK  7 active torsions:
REMARK  status: ('A' for Active; 'I' for Inactive)
REMARK    1  A    between atoms: C_1  and  C_2
REMARK    2  A    between atoms: N_3  and  C_15
REMARK    3  A    between atoms: N_6  and  C_7
REMARK    4  A    between atoms: C_7  and  C_8
REMARK    5  A    between atoms: N_10  and  C_11
REMARK    6  A    between atoms: N_10  and  C_12
REMARK    7  A    between atoms: C_18  and  C_19
REMARK                            x       y       z     vdW  Elec       q    Type
REMARK                         _______ _______ _______ _____ _____    ______ ____
USER                              x       y       z     vdW  Elec       q    Type
USER                           _______ _______ _______ _____ _____    ______ ____
ROOT
ATOM      1  C   UNL     1     159.270 170.555 175.050 -0.30 -0.00    +0.038 C 
ATOM      2  C   UNL     1     160.353 170.013 175.969 -0.36 -0.01    +0.166 C 
ATOM      3  C   UNL     1     161.707 169.939 175.265 -0.26 -0.01    +0.244 C 
ATOM      4  O   UNL     1     162.255 170.875 174.695 -0.23 +0.02    -0.273 OA
ATOM      5  N   UNL     1     162.232 168.694 175.450 -0.22 +0.02    -0.215 N 
ATOM      6  C   UNL     1     161.350 167.888 176.112 -0.09 -0.02    +0.317 C 
ATOM      7  O   UNL     1     161.591 166.748 176.487 -0.13 +0.02    -0.252 OA
ATOM      8  N   UNL     1     160.187 168.627 176.347 -0.28 +0.03    -0.243 N 
ENDROOT
BRANCH   8   9
ATOM      9  C   UNL     1     159.037 168.107 176.966 -0.41 -0.01    +0.039 A 
ATOM     10  C   UNL     1     158.076 168.983 177.479 -0.40 -0.01    +0.024 A 
ATOM     11  C   UNL     1     156.936 168.491 178.117 -0.33 -0.00    +0.005 A 
ATOM     12  C   UNL     1     156.712 167.113 178.199 -0.36 +0.02    -0.050 A 
ATOM     13  C   UNL     1     155.448 166.599 178.824 -0.46 -0.02    +0.044 C 
ATOM     14  C   UNL     1     157.677 166.236 177.690 -0.31 -0.00    +0.005 A 
ATOM     15  C   UNL     1     158.847 166.730 177.101 -0.20 -0.01    +0.024 A 
ENDBRANCH   8   9
BRANCH   5  16
ATOM     16  C   UNL     1     163.552 168.272 175.036 -0.13 -0.05    +0.213 C 
BRANCH  16  17
ATOM     17  C   UNL     1     163.856 168.680 173.591 -0.29 -0.06    +0.233 C 
ATOM     18  N   UNL     1     164.667 169.804 173.412 -0.16 +0.10    -0.306 N 
ATOM     19  C   UNL     1     165.175 170.102 172.080 -0.14 -0.04    +0.131 C 
ATOM     20  C   UNL     1     165.161 170.660 174.479 -0.18 -0.06    +0.131 C 
ATOM     21  O   UNL     1     163.419 168.032 172.637 -0.29 +0.06    -0.274 OA
ENDBRANCH  16  17
ENDBRANCH   5  16
TORSDOF 3
TER
ENDMDL
