MODEL        1
USER    Run = 1
USER
USER    Estimated Free Energy of Binding    =  -5.74 kcal/mol  [=(1)+(2)+(3)-(4)]
USER
USER    (1) Final Intermolecular Energy     =  -6.93 kcal/mol
USER        vdW + Hbond + desolv Energy     =  -6.85 kcal/mol
USER        Electrostatic Energy            =  -0.08 kcal/mol
USER        Moving Ligand-Fixed Receptor    =  -6.93 kcal/mol
USER        Moving Ligand-Moving Receptor   =  +0.00 kcal/mol
USER    (2) Final Total Internal Energy     =  -0.35 kcal/mol
USER    (3) Torsional Free Energy           =  +1.19 kcal/mol
USER    (4) Unbound System's Energy         =  -0.35 kcal/mol
USER
USER
REMARK  Name = Z13699494
REMARK  5 active torsions:
REMARK  status: ('A' for Active; 'I' for Inactive)
REMARK    1  A    between atoms: C_1  and  C_2
REMARK    2  A    between atoms: C_2  and  C_3
REMARK    3  A    between atoms: C_6  and  S_7
REMARK    4  A    between atoms: S_7  and  C_8
REMARK    5  A    between atoms: C_8  and  C_9
REMARK                            x       y       z     vdW  Elec       q    Type
REMARK                         _______ _______ _______ _____ _____    ______ ____
USER                              x       y       z     vdW  Elec       q    Type
USER                           _______ _______ _______ _____ _____    ______ ____
ROOT
ATOM      1  C   UNL     1     154.145 167.643 179.331 -0.38 +0.01    -0.008 A 
ATOM      2  S   UNL     1     154.068 165.977 178.947 -0.49 +0.04    -0.073 S 
ATOM      3  C   UNL     1     155.538 166.033 178.088 -0.30 -0.05    +0.113 A 
ATOM      4  C   UNL     1     156.112 167.297 178.091 -0.45 -0.02    +0.040 A 
ATOM      5  C   UNL     1     157.325 167.405 177.401 -0.36 -0.06    +0.109 A 
ATOM      6  N   UNL     1     157.865 166.330 176.788 -0.25 +0.09    -0.229 NA
ATOM      7  C   UNL     1     157.196 165.168 176.878 -0.21 -0.10    +0.223 A 
ATOM      8  N   UNL     1     156.037 164.934 177.499 -0.19 +0.10    -0.228 NA
ATOM      9  C   UNL     1     155.293 168.219 178.825 -0.35 -0.02    +0.024 A 
ENDROOT
BRANCH   1  11
ATOM     10  C   UNL     1     153.174 169.820 180.068 -0.38 -0.01    +0.009 C 
ATOM     11  C   UNL     1     153.052 168.304 180.115 -0.32 -0.04    +0.039 C 
ENDBRANCH   1  11
BRANCH   5  12
ATOM     12  S   UNL     1     158.165 168.966 177.372 -0.57 +0.04    -0.096 S 
BRANCH  12  13
ATOM     13  C   UNL     1     159.881 168.419 177.103 -0.43 -0.04    +0.172 C 
BRANCH  13  14
ATOM     14  C   UNL     1     160.631 169.335 176.145 -0.32 -0.02    +0.233 C 
ATOM     15  N   UNL     1     161.662 168.732 175.447 -0.21 +0.01    -0.224 N 
ATOM     16  C   UNL     1     162.511 167.712 175.917 -0.17 -0.04    +0.309 C 
ATOM     17  O   UNL     1     162.413 167.063 176.943 -0.38 +0.03    -0.252 OA
ATOM     18  N   UNL     1     163.515 167.531 174.970 -0.24 +0.07    -0.297 N 
ATOM     19  H   UNL     1     164.136 166.735 175.037 +0.11 -0.05    +0.150 HD
ATOM     20  C   UNL     1     163.209 168.281 173.785 -0.35 -0.02    +0.125 C 
ATOM     21  C   UNL     1     162.285 169.366 174.307 -0.32 -0.01    +0.136 C 
ATOM     22  O   UNL     1     160.369 170.531 175.997 -0.31 +0.00    -0.274 OA
ENDBRANCH  13  14
ENDBRANCH  12  13
ENDBRANCH   5  12
TORSDOF 4
TER
ENDMDL
