MODEL        1
USER    Run = 1
USER
USER    Estimated Free Energy of Binding    =  -4.69 kcal/mol  [=(1)+(2)+(3)-(4)]
USER
USER    (1) Final Intermolecular Energy     =  -6.77 kcal/mol
USER        vdW + Hbond + desolv Energy     =  -6.52 kcal/mol
USER        Electrostatic Energy            =  -0.25 kcal/mol
USER        Moving Ligand-Fixed Receptor    =  -6.77 kcal/mol
USER        Moving Ligand-Moving Receptor   =  +0.00 kcal/mol
USER    (2) Final Total Internal Energy     =  -3.04 kcal/mol
USER    (3) Torsional Free Energy           =  +2.09 kcal/mol
USER    (4) Unbound System's Energy         =  -3.04 kcal/mol
USER
USER
REMARK  Name = Z13608400
REMARK  8 active torsions:
REMARK  status: ('A' for Active; 'I' for Inactive)
REMARK    1  A    between atoms: C_1  and  O_2
REMARK    2  A    between atoms: O_2  and  C_3
REMARK    3  A    between atoms: C_3  and  C_5
REMARK    4  A    between atoms: C_10  and  N_11
REMARK    5  A    between atoms: C_12  and  C_14
REMARK    6  A    between atoms: C_14  and  O_15
REMARK    7  A    between atoms: O_15  and  C_16
REMARK    8  A    between atoms: N_21  and  C_25
REMARK                            x       y       z     vdW  Elec       q    Type
REMARK                         _______ _______ _______ _____ _____    ______ ____
USER                              x       y       z     vdW  Elec       q    Type
USER                           _______ _______ _______ _____ _____    ______ ____
ROOT
ATOM      1  O   UNL     1     163.884 168.849 174.858 -0.03 +0.12    -0.466 OA
ENDROOT
BRANCH   1   2
ATOM      2  C   UNL     1     162.547 169.037 175.136 -0.03 -0.03    +0.229 A 
ATOM      3  C   UNL     1     161.742 168.257 175.976 -0.28 -0.01    +0.100 A 
ATOM      4  C   UNL     1     160.412 168.638 176.100 -0.08 -0.01    +0.170 A 
ATOM      5  N   UNL     1     159.807 167.704 176.944 -0.30 +0.04    -0.214 N 
ATOM      6  N   UNL     1     160.712 166.775 177.374 -0.21 +0.03    -0.172 NA
ATOM      7  N   UNL     1     159.854 169.709 175.496 -0.30 +0.01    -0.216 NA
ATOM      8  C   UNL     1     160.727 170.399 174.750 -0.21 +0.00    +0.227 A 
ATOM      9  C   UNL     1     161.858 167.127 176.801 -0.29 -0.02    +0.150 A 
ATOM     10  N   UNL     1     162.024 170.125 174.538 -0.25 +0.02    -0.201 NA
BRANCH   5  11
ATOM     11  C   UNL     1     158.453 167.608 177.383 -0.25 -0.03    +0.068 A 
ATOM     12  C   UNL     1     157.832 166.346 177.400 -0.36 -0.01    +0.028 A 
ATOM     13  C   UNL     1     156.510 166.211 177.825 -0.43 -0.00    +0.002 A 
ATOM     14  C   UNL     1     155.794 167.331 178.236 -0.48 -0.00    +0.000 A 
ATOM     15  C   UNL     1     156.399 168.587 178.219 -0.26 -0.00    +0.002 A 
ATOM     16  C   UNL     1     157.723 168.729 177.793 -0.39 -0.01    +0.028 A 
ENDBRANCH   5  11
ENDBRANCH   1   2
BRANCH   1  17
ATOM     17  C   UNL     1     164.182 168.839 173.475 -0.20 -0.09    +0.326 C 
BRANCH  17  20
ATOM     18  N   UNL     1     164.322 171.255 173.777 -0.09 +0.07    -0.282 N 
ATOM     19  H   UNL     1     164.027 171.026 174.728 +0.11 -0.04    +0.155 HD
ATOM     20  C   UNL     1     164.664 170.187 172.968 -0.20 -0.08    +0.255 C 
ATOM     21  O   UNL     1     165.259 170.240 171.891 -0.27 +0.07    -0.272 OA
BRANCH  18  23
ATOM     22  C   UNL     1     164.032 173.650 174.332 -0.09 -0.00    +0.080 A 
ATOM     23  C   UNL     1     164.506 172.628 173.479 -0.10 -0.01    +0.048 A 
ATOM     24  C   UNL     1     165.161 173.007 172.292 -0.14 -0.00    +0.024 A 
ATOM     25  C   UNL     1     165.385 174.343 171.965 -0.15 -0.00    +0.002 A 
ATOM     26  C   UNL     1     164.938 175.342 172.811 -0.12 -0.00    +0.001 A 
ATOM     27  C   UNL     1     164.260 174.998 173.979 -0.14 -0.00    +0.017 A 
BRANCH  22  28
ATOM     28  C   UNL     1     163.324 173.462 175.636 -0.04 +0.10    +0.341 C 
ATOM     29  O   UNL     1     162.891 172.377 176.002 -0.25 -0.03    -0.245 OA
BRANCH  28  31
ATOM     30  C   UNL     1     163.627 174.481 177.711 -0.13 +0.12    +0.280 C 
ATOM     31  O   UNL     1     163.210 174.613 176.345 -0.55 -0.47    -0.464 OA
ENDBRANCH  28  31
ENDBRANCH  22  28
ENDBRANCH  18  23
ENDBRANCH  17  20
ENDBRANCH   1  17
TORSDOF 7
TER
ENDMDL
