MODEL        1
USER    Run = 1
USER
USER    Estimated Free Energy of Binding    =  -5.05 kcal/mol  [=(1)+(2)+(3)-(4)]
USER
USER    (1) Final Intermolecular Energy     =  -7.43 kcal/mol
USER        vdW + Hbond + desolv Energy     =  -7.51 kcal/mol
USER        Electrostatic Energy            =  +0.07 kcal/mol
USER        Moving Ligand-Fixed Receptor    =  -7.43 kcal/mol
USER        Moving Ligand-Moving Receptor   =  +0.00 kcal/mol
USER    (2) Final Total Internal Energy     =  -1.80 kcal/mol
USER    (3) Torsional Free Energy           =  +2.39 kcal/mol
USER    (4) Unbound System's Energy         =  -1.80 kcal/mol
USER
USER
REMARK  Name = Z13668682
REMARK  11 active torsions:
REMARK  status: ('A' for Active; 'I' for Inactive)
REMARK    1  A    between atoms: C_1  and  C_2
REMARK    2  A    between atoms: C_2  and  N_3
REMARK    3  A    between atoms: N_3  and  C_4
REMARK    4  A    between atoms: N_3  and  S_6
REMARK    5  A    between atoms: C_4  and  C_5
REMARK    6  A    between atoms: S_6  and  C_9
REMARK    7  A    between atoms: C_12  and  C_15
REMARK    8  A    between atoms: N_17  and  C_18
REMARK    9  A    between atoms: C_18  and  C_19
REMARK   10  A    between atoms: C_19  and  O_21
REMARK   11  A    between atoms: O_21  and  C_22
REMARK                            x       y       z     vdW  Elec       q    Type
REMARK                         _______ _______ _______ _____ _____    ______ ____
USER                              x       y       z     vdW  Elec       q    Type
USER                           _______ _______ _______ _____ _____    ______ ____
ROOT
ATOM      1  C   UNL     1     162.686 168.428 175.012 -0.25 -0.01    +0.105 A 
ATOM      2  C   UNL     1     161.854 169.538 174.850 -0.35 -0.00    +0.029 A 
ATOM      3  C   UNL     1     160.719 169.685 175.653 -0.44 -0.00    +0.015 A 
ATOM      4  C   UNL     1     160.408 168.726 176.627 -0.44 -0.01    +0.037 A 
ATOM      5  C   UNL     1     161.273 167.628 176.796 -0.42 -0.00    +0.015 A 
ATOM      6  C   UNL     1     162.412 167.477 175.996 -0.38 -0.00    +0.029 A 
ENDROOT
BRANCH   4   7
ATOM      7  C   UNL     1     159.189 168.801 177.496 -0.29 -0.08    +0.244 C 
ATOM      8  N   UNL     1     158.031 168.216 177.034 -0.22 +0.16    -0.301 N 
ATOM      9  H   UNL     1     157.977 167.741 176.142 -0.24 -0.10    +0.150 HD
ATOM     10  O   UNL     1     159.241 169.354 178.590 -0.14 +0.11    -0.270 OA
BRANCH   8  11
ATOM     11  C   UNL     1     156.819 168.192 177.841 -0.36 -0.13    +0.225 C 
BRANCH  11  12
ATOM     12  C   UNL     1     156.008 166.948 177.515 -0.26 -0.18    +0.324 C 
ATOM     13  O   UNL     1     155.001 166.601 178.127 -0.33 +0.14    -0.249 OA
BRANCH  12  14
ATOM     14  O   UNL     1     156.547 166.289 176.451 -0.20 +0.28    -0.467 OA
ATOM     15  C   UNL     1     157.050 164.989 176.765 -0.23 -0.14    +0.280 C 
ENDBRANCH  12  14
ENDBRANCH  11  12
ENDBRANCH   8  11
ENDBRANCH   4   7
BRANCH   1  16
ATOM     16  S   UNL     1     164.142 168.264 174.002 -0.61 -0.02    +0.061 S 
ATOM     17  O   UNL     1     165.294 168.460 174.858 -0.49 +0.06    -0.153 OA
ATOM     18  O   UNL     1     163.985 167.055 173.223 -0.43 +0.04    -0.153 OA
BRANCH  16  19
ATOM     19  N   UNL     1     164.064 169.613 172.933 -0.27 +0.05    -0.177 NA
BRANCH  19  21
ATOM     20  C   UNL     1     165.108 171.573 174.117 -0.27 -0.01    +0.022 C 
ATOM     21  C   UNL     1     165.237 170.536 173.011 -0.27 -0.04    +0.106 C 
ENDBRANCH  19  21
BRANCH  19  22
ATOM     22  C   UNL     1     163.641 169.239 171.546 -0.20 -0.03    +0.106 C 
ATOM     23  C   UNL     1     162.262 168.600 171.479 -0.42 -0.01    +0.022 C 
ENDBRANCH  19  22
ENDBRANCH  16  19
ENDBRANCH   1  16
TORSDOF 8
TER
ENDMDL
