MODEL        1
USER    Run = 1
USER
USER    Estimated Free Energy of Binding    =  -4.36 kcal/mol  [=(1)+(2)+(3)-(4)]
USER
USER    (1) Final Intermolecular Energy     =  -6.15 kcal/mol
USER        vdW + Hbond + desolv Energy     =  -6.05 kcal/mol
USER        Electrostatic Energy            =  -0.10 kcal/mol
USER        Moving Ligand-Fixed Receptor    =  -6.15 kcal/mol
USER        Moving Ligand-Moving Receptor   =  +0.00 kcal/mol
USER    (2) Final Total Internal Energy     =  -1.35 kcal/mol
USER    (3) Torsional Free Energy           =  +1.79 kcal/mol
USER    (4) Unbound System's Energy         =  -1.35 kcal/mol
USER
USER
REMARK  Name = Z13772425
REMARK  9 active torsions:
REMARK  status: ('A' for Active; 'I' for Inactive)
REMARK    1  A    between atoms: C_1  and  C_2
REMARK    2  A    between atoms: C_2  and  O_3
REMARK    3  A    between atoms: O_3  and  C_4
REMARK    4  A    between atoms: C_7  and  O_8
REMARK    5  A    between atoms: O_8  and  C_9
REMARK    6  A    between atoms: C_9  and  C_10
REMARK    7  A    between atoms: N_12  and  C_13
REMARK    8  A    between atoms: C_15  and  C_16
REMARK    9  A    between atoms: C_18  and  C_19
REMARK                            x       y       z     vdW  Elec       q    Type
REMARK                         _______ _______ _______ _____ _____    ______ ____
USER                              x       y       z     vdW  Elec       q    Type
USER                           _______ _______ _______ _____ _____    ______ ____
ROOT
ATOM      1  C   UNL     1     161.912 167.980 176.172 -0.23 -0.02    +0.255 C 
ATOM      2  N   UNL     1     161.709 168.980 175.233 -0.18 +0.02    -0.283 N 
ATOM      3  H   UNL     1     160.848 169.511 175.345 +0.11 -0.00    +0.155 HD
ATOM      4  O   UNL     1     162.874 167.216 176.244 -0.34 +0.04    -0.272 OA
ENDROOT
BRANCH   2   5
ATOM      5  C   UNL     1     162.547 169.334 174.155 -0.33 -0.00    +0.034 A 
ATOM      6  C   UNL     1     163.711 170.074 174.420 -0.16 -0.01    +0.026 A 
ATOM      7  C   UNL     1     164.579 170.448 173.376 -0.27 +0.02    -0.048 A 
ATOM      8  C   UNL     1     165.822 171.240 173.660 -0.25 -0.02    +0.044 C 
ATOM      9  C   UNL     1     164.268 170.075 172.063 -0.30 -0.00    +0.006 A 
ATOM     10  C   UNL     1     163.111 169.342 171.787 -0.19 +0.01    -0.048 A 
ATOM     11  C   UNL     1     162.774 168.941 170.382 -0.30 -0.02    +0.044 C 
ATOM     12  C   UNL     1     162.261 168.981 172.837 -0.23 -0.00    +0.026 A 
ENDBRANCH   2   5
BRANCH   1  13
ATOM     13  C   UNL     1     160.783 167.860 177.198 -0.26 -0.06    +0.325 C 
BRANCH  13  14
ATOM     14  O   UNL     1     159.563 168.306 176.622 -0.15 +0.10    -0.483 OA
BRANCH  14  18
ATOM     15  C   UNL     1     155.928 166.844 178.017 -0.36 -0.06    +0.121 A 
ATOM     16  C   UNL     1     156.879 165.929 177.556 -0.38 -0.02    +0.049 A 
ATOM     17  C   UNL     1     158.130 166.367 177.100 -0.31 -0.02    +0.049 A 
ATOM     18  C   UNL     1     158.426 167.729 177.104 -0.32 -0.05    +0.121 A 
ATOM     19  C   UNL     1     157.482 168.640 177.565 -0.42 -0.03    +0.049 A 
ATOM     20  C   UNL     1     156.243 168.203 178.026 -0.39 -0.03    +0.049 A 
BRANCH  15  21
ATOM     21  O   UNL     1     154.732 166.311 178.421 -0.13 +0.27    -0.492 OA
BRANCH  21  23
ATOM     22  C   UNL     1     153.484 166.190 180.473 -0.38 -0.03    +0.048 C 
ATOM     23  C   UNL     1     154.002 167.091 179.372 -0.29 -0.18    +0.226 C 
ENDBRANCH  21  23
ENDBRANCH  15  21
ENDBRANCH  14  18
ENDBRANCH  13  14
ENDBRANCH   1  13
TORSDOF 6
TER
ENDMDL
