MODEL        1
USER    Run = 1
USER
USER    Estimated Free Energy of Binding    =  -3.52 kcal/mol  [=(1)+(2)+(3)-(4)]
USER
USER    (1) Final Intermolecular Energy     =  -6.20 kcal/mol
USER        vdW + Hbond + desolv Energy     =  -5.90 kcal/mol
USER        Electrostatic Energy            =  -0.30 kcal/mol
USER        Moving Ligand-Fixed Receptor    =  -6.20 kcal/mol
USER        Moving Ligand-Moving Receptor   =  +0.00 kcal/mol
USER    (2) Final Total Internal Energy     =  -2.83 kcal/mol
USER    (3) Torsional Free Energy           =  +2.68 kcal/mol
USER    (4) Unbound System's Energy         =  -2.83 kcal/mol
USER
USER
REMARK  Name = Z13702152
REMARK  11 active torsions:
REMARK  status: ('A' for Active; 'I' for Inactive)
REMARK    1  A    between atoms: C_1  and  C_2
REMARK    2  A    between atoms: C_2  and  N_3
REMARK    3  A    between atoms: N_3  and  C_19
REMARK    4  A    between atoms: C_4  and  C_6
REMARK    5  A    between atoms: C_6  and  S_7
REMARK    6  A    between atoms: S_7  and  C_8
REMARK    7  A    between atoms: C_14  and  C_15
REMARK    8  A    between atoms: C_15  and  C_16
REMARK    9  A    between atoms: C_20  and  N_21
REMARK   10  A    between atoms: N_22  and  C_23
REMARK   11  A    between atoms: C_23  and  C_24
REMARK                            x       y       z     vdW  Elec       q    Type
REMARK                         _______ _______ _______ _____ _____    ______ ____
USER                              x       y       z     vdW  Elec       q    Type
USER                           _______ _______ _______ _____ _____    ______ ____
ROOT
ATOM      1  C   UNL     1     165.757 176.544 174.296 -0.03 -0.02    +0.140 C 
ATOM      2  C   UNL     1     167.126 176.680 174.885 +0.01 -0.03    +0.277 C 
ATOM      3  O   UNL     1     167.310 176.953 176.068 -0.52 -0.05    -0.266 OA
ATOM      4  N   UNL     1     168.166 176.542 174.026 -0.02 +0.06    -0.273 N 
ATOM      5  H   UNL     1     169.091 176.735 174.375 +0.04 -0.04    +0.173 HD
ATOM      6  C   UNL     1     168.062 176.272 172.697 +0.03 -0.06    +0.331 C 
ATOM      7  O   UNL     1     169.067 176.341 171.994 -0.10 +0.04    -0.246 OA
ATOM      8  N   UNL     1     166.795 175.949 172.231 -0.00 +0.04    -0.276 N 
ATOM      9  C   UNL     1     165.644 176.167 172.991 -0.05 -0.03    +0.128 C 
ENDROOT
BRANCH   9  10
ATOM     10  N   UNL     1     164.409 176.108 172.356 +0.12 +0.15    -0.343 N 
ATOM     11  H   UNL     1     163.989 175.182 172.371 +0.05 -0.05    +0.144 HD
ATOM     12  H   UNL     1     163.750 176.832 172.619 -0.47 -0.16    +0.144 HD
ENDBRANCH   9  10
BRANCH   1  13
ATOM     13  N   UNL     1     164.663 176.875 175.113 -0.02 -0.03    -0.264 N 
ATOM     14  C   UNL     1     164.136 175.976 176.069 -0.04 +0.11    +0.230 C 
ATOM     15  O   UNL     1     163.270 176.347 176.866 -0.49 -0.28    -0.274 OA
BRANCH  13  17
ATOM     16  C   UNL     1     164.643 179.152 173.961 -0.03 -0.01    +0.025 C 
ATOM     17  C   UNL     1     164.194 178.275 175.126 -0.01 +0.01    +0.110 C 
ENDBRANCH  13  17
BRANCH  14  18
ATOM     18  C   UNL     1     164.678 174.540 176.101 -0.12 +0.03    +0.172 C 
BRANCH  18  19
ATOM     19  S   UNL     1     164.067 173.569 174.681 -0.25 +0.00    -0.096 S 
BRANCH  19  20
ATOM     20  C   UNL     1     164.989 172.068 174.892 -0.10 -0.03    +0.109 A 
ATOM     21  C   UNL     1     164.546 170.899 174.254 -0.19 -0.01    +0.040 A 
ATOM     22  C   UNL     1     165.322 169.772 174.472 -0.16 -0.06    +0.113 A 
ATOM     23  S   UNL     1     164.726 168.392 173.667 -0.43 +0.02    -0.073 S 
ATOM     24  C   UNL     1     163.422 169.266 172.993 -0.37 +0.00    -0.008 A 
ATOM     25  N   UNL     1     166.437 169.704 175.224 -0.11 +0.17    -0.228 NA
ATOM     26  C   UNL     1     166.756 170.879 175.772 -0.04 -0.16    +0.223 A 
ATOM     27  C   UNL     1     163.438 170.582 173.395 -0.06 -0.00    +0.024 A 
ATOM     28  N   UNL     1     166.100 172.045 175.658 -0.05 +0.10    -0.229 NA
BRANCH  24  29
ATOM     29  C   UNL     1     162.438 168.597 172.077 -0.36 -0.01    +0.039 C 
ATOM     30  C   UNL     1     162.670 168.966 170.620 -0.39 -0.00    +0.009 C 
ENDBRANCH  24  29
ENDBRANCH  19  20
ENDBRANCH  18  19
ENDBRANCH  14  18
ENDBRANCH   1  13
BRANCH   8  31
ATOM     31  C   UNL     1     166.699 175.554 170.817 -0.15 -0.00    +0.163 C 
BRANCH  31  32
ATOM     32  C   UNL     1     166.093 174.182 170.558 -0.23 -0.00    -0.028 A 
ATOM     33  C   UNL     1     165.249 173.916 169.468 -0.32 -0.00    +0.005 A 
ATOM     34  C   UNL     1     164.571 172.694 169.368 -0.40 -0.00    +0.000 A 
ATOM     35  C   UNL     1     164.722 171.723 170.355 -0.27 -0.00    +0.000 A 
ATOM     36  C   UNL     1     165.571 171.961 171.431 -0.24 +0.00    +0.000 A 
ATOM     37  C   UNL     1     166.248 173.180 171.533 -0.12 +0.00    +0.005 A 
ENDBRANCH  31  32
ENDBRANCH   8  31
TORSDOF 9
TER
ENDMDL
