MODEL        1
USER    Run = 1
USER
USER    Estimated Free Energy of Binding    =  -4.72 kcal/mol  [=(1)+(2)+(3)-(4)]
USER
USER    (1) Final Intermolecular Energy     =  -7.10 kcal/mol
USER        vdW + Hbond + desolv Energy     =  -7.00 kcal/mol
USER        Electrostatic Energy            =  -0.11 kcal/mol
USER        Moving Ligand-Fixed Receptor    =  -7.10 kcal/mol
USER        Moving Ligand-Moving Receptor   =  +0.00 kcal/mol
USER    (2) Final Total Internal Energy     =  -2.40 kcal/mol
USER    (3) Torsional Free Energy           =  +2.39 kcal/mol
USER    (4) Unbound System's Energy         =  -2.40 kcal/mol
USER
USER
REMARK  Name = Z13769733
REMARK  9 active torsions:
REMARK  status: ('A' for Active; 'I' for Inactive)
REMARK    1  A    between atoms: C_1  and  C_2
REMARK    2  A    between atoms: C_2  and  O_3
REMARK    3  A    between atoms: O_3  and  C_4
REMARK    4  A    between atoms: C_7  and  O_8
REMARK    5  A    between atoms: O_8  and  C_9
REMARK    6  A    between atoms: C_9  and  C_10
REMARK    7  A    between atoms: N_12  and  C_13
REMARK    8  A    between atoms: C_18  and  C_19
REMARK    9  A    between atoms: C_19  and  C_20
REMARK                            x       y       z     vdW  Elec       q    Type
REMARK                         _______ _______ _______ _____ _____    ______ ____
USER                              x       y       z     vdW  Elec       q    Type
USER                           _______ _______ _______ _____ _____    ______ ____
ROOT
ATOM      1  C   UNL     1     153.947 166.038 179.601 -0.25 -0.15    +0.255 C 
ATOM      2  N   UNL     1     153.914 165.301 178.414 -0.17 +0.14    -0.282 N 
ATOM      3  H   UNL     1     154.293 165.740 177.587 +0.10 -0.08    +0.155 HD
ATOM      4  O   UNL     1     153.580 165.639 180.707 -0.21 +0.14    -0.272 OA
ENDROOT
BRANCH   2   5
ATOM      5  C   UNL     1     153.446 163.958 178.272 -0.26 -0.01    +0.037 A 
ATOM      6  C   UNL     1     152.062 163.664 178.191 -0.28 +0.01    -0.022 A 
ATOM      7  C   UNL     1     151.651 162.317 178.041 -0.17 -0.00    +0.006 A 
ATOM      8  C   UNL     1     152.575 161.281 177.936 -0.25 -0.00    +0.000 A 
ATOM      9  C   UNL     1     153.926 161.567 178.012 -0.31 -0.00    +0.002 A 
ATOM     10  C   UNL     1     154.351 162.886 178.195 -0.12 -0.01    +0.023 A 
BRANCH   6  11
ATOM     11  C   UNL     1     150.956 164.702 178.143 -0.28 -0.02    +0.072 C 
BRANCH  11  12
ATOM     12  C   UNL     1     150.629 165.494 179.394 -0.24 +0.01    -0.043 A 
ATOM     13  C   UNL     1     150.640 164.807 180.624 -0.35 -0.00    +0.004 A 
ATOM     14  C   UNL     1     150.246 165.433 181.808 -0.40 -0.00    +0.000 A 
ATOM     15  C   UNL     1     149.851 166.766 181.787 -0.28 -0.00    +0.000 A 
ATOM     16  C   UNL     1     149.886 167.478 180.589 -0.15 -0.00    +0.000 A 
ATOM     17  C   UNL     1     150.275 166.849 179.399 -0.17 -0.00    +0.004 A 
ENDBRANCH  11  12
ENDBRANCH   6  11
ENDBRANCH   2   5
BRANCH   1  18
ATOM     18  C   UNL     1     154.553 167.441 179.482 -0.20 -0.27    +0.325 C 
BRANCH  18  19
ATOM     19  O   UNL     1     154.811 167.735 178.117 -0.13 +0.34    -0.483 OA
BRANCH  19  23
ATOM     20  C   UNL     1     158.816 167.589 176.914 -0.28 -0.04    +0.121 A 
ATOM     21  C   UNL     1     158.032 166.442 176.766 -0.27 -0.02    +0.049 A 
ATOM     22  C   UNL     1     156.679 166.438 177.151 -0.42 -0.03    +0.049 A 
ATOM     23  C   UNL     1     156.103 167.589 177.687 -0.38 -0.07    +0.121 A 
ATOM     24  C   UNL     1     156.895 168.723 177.858 -0.29 -0.03    +0.049 A 
ATOM     25  C   UNL     1     158.237 168.730 177.463 -0.41 -0.02    +0.049 A 
BRANCH  20  26
ATOM     26  O   UNL     1     160.122 167.486 176.499 -0.05 +0.06    -0.492 OA
BRANCH  26  28
ATOM     27  C   UNL     1     161.940 166.559 177.792 -0.45 -0.01    +0.048 C 
ATOM     28  C   UNL     1     161.113 167.793 177.483 -0.33 -0.04    +0.226 C 
ENDBRANCH  26  28
ENDBRANCH  20  26
ENDBRANCH  19  23
ENDBRANCH  18  19
ENDBRANCH   1  18
TORSDOF 8
TER
ENDMDL
