MODEL        1
USER    Run = 1
USER
USER    Estimated Free Energy of Binding    =  -4.40 kcal/mol  [=(1)+(2)+(3)-(4)]
USER
USER    (1) Final Intermolecular Energy     =  -6.19 kcal/mol
USER        vdW + Hbond + desolv Energy     =  -6.06 kcal/mol
USER        Electrostatic Energy            =  -0.14 kcal/mol
USER        Moving Ligand-Fixed Receptor    =  -6.19 kcal/mol
USER        Moving Ligand-Moving Receptor   =  +0.00 kcal/mol
USER    (2) Final Total Internal Energy     =  -1.35 kcal/mol
USER    (3) Torsional Free Energy           =  +1.79 kcal/mol
USER    (4) Unbound System's Energy         =  -1.35 kcal/mol
USER
USER
REMARK  Name = Z13772481
REMARK  7 active torsions:
REMARK  status: ('A' for Active; 'I' for Inactive)
REMARK    1  A    between atoms: C_1  and  C_2
REMARK    2  A    between atoms: C_2  and  O_3
REMARK    3  A    between atoms: O_3  and  C_4
REMARK    4  A    between atoms: C_7  and  O_8
REMARK    5  A    between atoms: O_8  and  C_9
REMARK    6  A    between atoms: C_9  and  C_10
REMARK    7  A    between atoms: N_12  and  C_13
REMARK                            x       y       z     vdW  Elec       q    Type
REMARK                         _______ _______ _______ _____ _____    ______ ____
USER                              x       y       z     vdW  Elec       q    Type
USER                           _______ _______ _______ _____ _____    ______ ____
ROOT
ATOM      1  C   UNL     1     159.519 168.850 177.522 -0.23 -0.10    +0.325 C 
ENDROOT
BRANCH   1   2
ATOM      2  C   UNL     1     160.751 169.353 176.768 -0.32 -0.03    +0.255 C 
ATOM      3  N   UNL     1     161.254 168.435 175.865 -0.15 +0.02    -0.283 N 
ATOM      4  H   UNL     1     160.691 167.598 175.745 +0.13 +0.00    +0.155 HD
ATOM      5  O   UNL     1     161.187 170.482 176.985 -0.31 +0.00    -0.272 OA
BRANCH   3   6
ATOM      6  C   UNL     1     162.378 168.586 175.032 -0.30 -0.00    +0.034 A 
ATOM      7  C   UNL     1     162.472 169.758 174.272 -0.33 -0.00    +0.023 A 
ATOM      8  C   UNL     1     163.591 169.994 173.469 -0.31 -0.00    +0.002 A 
ATOM      9  C   UNL     1     164.613 169.049 173.401 -0.34 -0.00    +0.000 A 
ATOM     10  C   UNL     1     164.507 167.863 174.123 -0.45 -0.00    +0.002 A 
ATOM     11  C   UNL     1     163.393 167.634 174.935 -0.39 -0.00    +0.023 A 
ENDBRANCH   3   6
ENDBRANCH   1   2
BRANCH   1  12
ATOM     12  O   UNL     1     158.915 167.760 176.834 -0.14 +0.15    -0.483 OA
BRANCH  12  16
ATOM     13  C   UNL     1     155.288 166.296 178.248 -0.31 -0.06    +0.121 A 
ATOM     14  C   UNL     1     155.521 167.670 178.329 -0.42 -0.03    +0.049 A 
ATOM     15  C   UNL     1     156.721 168.205 177.849 -0.44 -0.03    +0.049 A 
ATOM     16  C   UNL     1     157.682 167.372 177.278 -0.31 -0.06    +0.121 A 
ATOM     17  C   UNL     1     157.430 166.005 177.172 -0.38 -0.02    +0.049 A 
ATOM     18  C   UNL     1     156.230 165.470 177.639 -0.32 -0.02    +0.049 A 
BRANCH  13  19
ATOM     19  O   UNL     1     154.171 165.662 178.721 -0.11 +0.25    -0.492 OA
BRANCH  19  21
ATOM     20  C   UNL     1     153.703 166.400 180.938 -0.39 -0.03    +0.048 C 
ATOM     21  C   UNL     1     153.285 166.483 179.482 -0.23 -0.16    +0.226 C 
ENDBRANCH  19  21
ENDBRANCH  13  19
ENDBRANCH  12  16
ENDBRANCH   1  12
TORSDOF 6
TER
ENDMDL
