MODEL        1
USER    Run = 1
USER
USER    Estimated Free Energy of Binding    =  -4.58 kcal/mol  [=(1)+(2)+(3)-(4)]
USER
USER    (1) Final Intermolecular Energy     =  -5.77 kcal/mol
USER        vdW + Hbond + desolv Energy     =  -5.62 kcal/mol
USER        Electrostatic Energy            =  -0.15 kcal/mol
USER        Moving Ligand-Fixed Receptor    =  -5.77 kcal/mol
USER        Moving Ligand-Moving Receptor   =  +0.00 kcal/mol
USER    (2) Final Total Internal Energy     =  -0.50 kcal/mol
USER    (3) Torsional Free Energy           =  +1.19 kcal/mol
USER    (4) Unbound System's Energy         =  -0.50 kcal/mol
USER
USER
REMARK  Name = Z13704795
REMARK  5 active torsions:
REMARK  status: ('A' for Active; 'I' for Inactive)
REMARK    1  A    between atoms: C_1  and  C_2
REMARK    2  A    between atoms: C_2  and  C_3
REMARK    3  A    between atoms: C_6  and  S_7
REMARK    4  A    between atoms: S_7  and  C_8
REMARK    5  A    between atoms: C_8  and  C_9
REMARK                            x       y       z     vdW  Elec       q    Type
REMARK                         _______ _______ _______ _____ _____    ______ ____
USER                              x       y       z     vdW  Elec       q    Type
USER                           _______ _______ _______ _____ _____    ______ ____
ROOT
ATOM      1  C   UNL     1     157.533 167.862 177.533 -0.44 +0.00    -0.008 A 
ATOM      2  S   UNL     1     157.497 166.195 177.149 -0.58 +0.03    -0.073 S 
ATOM      3  C   UNL     1     155.934 166.004 177.802 -0.31 -0.05    +0.113 A 
ATOM      4  C   UNL     1     155.410 167.188 178.297 -0.43 -0.02    +0.040 A 
ATOM      5  C   UNL     1     154.117 167.091 178.830 -0.22 -0.09    +0.109 A 
ATOM      6  N   UNL     1     153.464 165.910 178.838 -0.21 +0.14    -0.229 NA
ATOM      7  C   UNL     1     154.109 164.845 178.336 -0.11 -0.10    +0.223 A 
ATOM      8  N   UNL     1     155.330 164.805 177.795 -0.14 +0.10    -0.228 NA
ATOM      9  C   UNL     1     156.356 168.259 178.139 -0.39 -0.01    +0.024 A 
ENDROOT
BRANCH   1  11
ATOM     10  C   UNL     1     159.999 167.855 177.110 -0.53 -0.00    +0.009 C 
ATOM     11  C   UNL     1     158.735 168.697 177.207 -0.52 -0.01    +0.039 C 
ENDBRANCH   1  11
BRANCH   5  12
ATOM     12  S   UNL     1     153.309 168.546 179.440 -0.27 +0.11    -0.096 S 
BRANCH  12  13
ATOM     13  C   UNL     1     152.864 167.994 181.117 -0.14 -0.18    +0.171 C 
BRANCH  13  14
ATOM     14  C   UNL     1     152.418 166.536 181.179 -0.21 -0.14    +0.226 C 
ATOM     15  N   UNL     1     151.133 166.259 180.726 -0.10 +0.14    -0.296 N 
ATOM     16  C   UNL     1     150.669 164.871 180.666 -0.34 -0.02    +0.136 C 
ATOM     17  C   UNL     1     150.059 164.586 179.290 -0.11 -0.00    +0.178 C 
ATOM     18  O   UNL     1     149.001 165.515 178.995 -0.18 -0.01    -0.377 OA
ATOM     19  C   UNL     1     149.491 166.866 178.993 -0.12 -0.09    +0.178 C 
ATOM     20  C   UNL     1     150.107 167.237 180.348 -0.13 -0.07    +0.136 C 
ATOM     21  O   UNL     1     153.146 165.635 181.602 -0.13 +0.14    -0.275 OA
ENDBRANCH  13  14
ENDBRANCH  12  13
ENDBRANCH   5  12
TORSDOF 4
TER
ENDMDL
