MODEL        1
USER    Run = 1
USER
USER    Estimated Free Energy of Binding    =  -3.69 kcal/mol  [=(1)+(2)+(3)-(4)]
USER
USER    (1) Final Intermolecular Energy     =  -4.88 kcal/mol
USER        vdW + Hbond + desolv Energy     =  -4.50 kcal/mol
USER        Electrostatic Energy            =  -0.38 kcal/mol
USER        Moving Ligand-Fixed Receptor    =  -4.88 kcal/mol
USER        Moving Ligand-Moving Receptor   =  +0.00 kcal/mol
USER    (2) Final Total Internal Energy     =  -1.84 kcal/mol
USER    (3) Torsional Free Energy           =  +1.19 kcal/mol
USER    (4) Unbound System's Energy         =  -1.84 kcal/mol
USER
USER
REMARK  Name = Z13864336
REMARK  6 active torsions:
REMARK  status: ('A' for Active; 'I' for Inactive)
REMARK    1  A    between atoms: C_1  and  C_2
REMARK    2  A    between atoms: N_11  and  C_12
REMARK    3  A    between atoms: C_12  and  C_13
REMARK    4  A    between atoms: N_15  and  C_16
REMARK    5  A    between atoms: C_20  and  N_21
REMARK    6  A    between atoms: C_22  and  C_24
REMARK                            x       y       z     vdW  Elec       q    Type
REMARK                         _______ _______ _______ _____ _____    ______ ____
USER                              x       y       z     vdW  Elec       q    Type
USER                           _______ _______ _______ _____ _____    ______ ____
ROOT
ATOM      1  C   UNL     1     164.993 176.779 175.980 -0.02 +0.05    +0.214 C 
ENDROOT
BRANCH   1   9
ATOM      2  C   UNL     1     168.109 176.883 169.404 -0.24 +0.00    +0.007 C 
ATOM      3  C   UNL     1     166.735 177.015 170.062 -0.26 +0.00    -0.014 C 
ATOM      4  C   UNL     1     166.520 178.413 170.662 -0.20 -0.00    +0.006 C 
ATOM      5  C   UNL     1     167.294 178.656 171.962 -0.05 -0.00    +0.036 C 
ATOM      6  C   UNL     1     167.115 177.539 172.987 -0.02 -0.02    +0.113 C 
ATOM      7  C   UNL     1     165.756 177.532 173.723 +0.02 -0.05    +0.247 C 
ATOM      8  O   UNL     1     164.662 177.715 173.211 -0.07 +0.12    -0.273 OA
ATOM      9  N   UNL     1     165.993 177.199 175.023 -0.01 +0.01    -0.215 N 
ATOM     10  C   UNL     1     167.311 177.353 175.314 -0.00 -0.02    +0.310 C 
ATOM     11  O   UNL     1     167.836 177.212 176.401 -0.67 -0.06    -0.252 OA
ATOM     12  N   UNL     1     167.963 177.712 174.155 +0.00 +0.05    -0.285 N 
ATOM     13  H   UNL     1     168.972 177.786 174.143 +0.03 -0.03    +0.151 HD
ATOM     14  C   UNL     1     167.341 176.143 172.380 -0.09 -0.01    +0.036 C 
ATOM     15  C   UNL     1     166.513 175.924 171.115 -0.20 -0.00    +0.006 C 
ENDBRANCH   1   9
BRANCH   1  16
ATOM     16  C   UNL     1     164.520 175.384 175.559 -0.05 +0.05    +0.235 C 
ATOM     17  N   UNL     1     165.386 174.718 174.694 -0.00 +0.03    -0.284 N 
ATOM     18  H   UNL     1     166.258 175.177 174.461 +0.06 -0.03    +0.155 HD
ATOM     19  O   UNL     1     163.433 174.961 175.954 -0.67 -0.25    -0.274 OA
BRANCH  17  20
ATOM     20  C   UNL     1     165.211 173.402 174.192 -0.06 -0.01    +0.035 A 
ATOM     21  C   UNL     1     164.944 173.231 172.820 -0.11 -0.01    +0.046 A 
ATOM     22  C   UNL     1     164.878 171.942 172.250 -0.20 -0.01    +0.035 A 
ATOM     23  C   UNL     1     165.040 170.833 173.079 -0.27 -0.01    +0.023 A 
ATOM     24  C   UNL     1     165.244 170.994 174.447 -0.23 -0.00    +0.004 A 
ATOM     25  C   UNL     1     165.326 172.270 174.999 -0.14 -0.01    +0.023 A 
BRANCH  22  26
ATOM     26  N   UNL     1     164.708 171.827 170.847 -0.12 +0.04    -0.286 N 
ATOM     27  H   UNL     1     164.016 171.160 170.532 +0.06 -0.04    +0.155 HD
ATOM     28  C   UNL     1     165.405 172.529 169.873 -0.21 +0.04    +0.214 C 
ATOM     29  C   UNL     1     164.854 172.348 168.481 -0.15 -0.02    +0.109 C 
ATOM     30  O   UNL     1     166.378 173.256 170.044 -0.65 -0.21    -0.276 OA
ENDBRANCH  22  26
ENDBRANCH  17  20
ENDBRANCH   1  16
TORSDOF 4
TER
ENDMDL
