MODEL        1
USER    Run = 1
USER
USER    Estimated Free Energy of Binding    =  -3.72 kcal/mol  [=(1)+(2)+(3)-(4)]
USER
USER    (1) Final Intermolecular Energy     =  -5.51 kcal/mol
USER        vdW + Hbond + desolv Energy     =  -5.29 kcal/mol
USER        Electrostatic Energy            =  -0.22 kcal/mol
USER        Moving Ligand-Fixed Receptor    =  -5.51 kcal/mol
USER        Moving Ligand-Moving Receptor   =  +0.00 kcal/mol
USER    (2) Final Total Internal Energy     =  -2.82 kcal/mol
USER    (3) Torsional Free Energy           =  +1.79 kcal/mol
USER    (4) Unbound System's Energy         =  -2.82 kcal/mol
USER
USER
REMARK  Name = Z13864276
REMARK  8 active torsions:
REMARK  status: ('A' for Active; 'I' for Inactive)
REMARK    1  A    between atoms: C_1  and  C_2
REMARK    2  A    between atoms: C_2  and  O_3
REMARK    3  A    between atoms: O_3  and  C_4
REMARK    4  A    between atoms: C_4  and  C_6
REMARK    5  A    between atoms: C_7  and  N_8
REMARK    6  A    between atoms: C_9  and  C_11
REMARK    7  A    between atoms: C_11  and  N_12
REMARK    8  A    between atoms: C_19  and  C_20
REMARK                            x       y       z     vdW  Elec       q    Type
REMARK                         _______ _______ _______ _____ _____    ______ ____
USER                              x       y       z     vdW  Elec       q    Type
USER                           _______ _______ _______ _____ _____    ______ ____
ROOT
ATOM      1  N   UNL     1     165.405 172.829 172.788 -0.04 +0.06    -0.278 N 
ATOM      2  H   UNL     1     165.283 172.387 173.701 +0.10 -0.04    +0.155 HD
ATOM      3  C   UNL     1     165.569 172.004 171.677 -0.14 -0.01    +0.235 C 
ATOM      4  O   UNL     1     165.603 172.349 170.498 -0.35 -0.06    -0.274 OA
ENDROOT
BRANCH   1  12
ATOM      5  C   UNL     1     164.756 175.069 173.742 -0.07 -0.01    +0.091 A 
ATOM      6  C   UNL     1     164.943 176.430 173.351 -0.07 +0.01    -0.021 A 
ATOM      7  C   UNL     1     165.626 176.555 172.179 -0.08 +0.00    -0.004 A 
ATOM      8  C   UNL     1     165.857 177.953 171.753 -0.07 -0.01    +0.043 C 
ATOM      9  C   UNL     1     165.505 178.720 173.063 -0.05 -0.00    +0.010 C 
ATOM     10  S   UNL     1     166.075 175.111 171.502 -0.25 +0.01    -0.077 S 
ATOM     11  C   UNL     1     164.607 177.766 173.912 -0.06 -0.01    +0.037 C 
ATOM     12  C   UNL     1     165.343 174.223 172.787 -0.06 -0.02    +0.086 A 
BRANCH   5  13
ATOM     13  C   UNL     1     164.105 174.681 174.991 -0.02 +0.06    +0.342 C 
ATOM     14  O   UNL     1     163.389 175.446 175.630 -0.58 -0.23    -0.245 OA
BRANCH  13  15
ATOM     15  O   UNL     1     164.452 173.429 175.411 -0.01 +0.01    -0.461 OA
BRANCH  15  17
ATOM     16  C   UNL     1     166.008 172.786 177.095 -0.34 -0.01    +0.048 C 
ATOM     17  C   UNL     1     164.602 173.294 176.831 -0.15 +0.00    +0.229 C 
ENDBRANCH  15  17
ENDBRANCH  13  15
ENDBRANCH   5  13
ENDBRANCH   1  12
BRANCH   3  18
ATOM     18  C   UNL     1     165.623 170.513 172.016 -0.03 -0.06    +0.214 C 
BRANCH  18  19
ATOM     19  N   UNL     1     164.381 170.165 172.662 -0.22 +0.06    -0.215 N 
ATOM     20  C   UNL     1     164.062 170.406 173.969 -0.15 -0.07    +0.247 C 
ATOM     21  O   UNL     1     164.733 171.029 174.778 -0.09 +0.09    -0.273 OA
ATOM     22  C   UNL     1     162.701 169.740 174.267 -0.31 -0.02    +0.113 C 
ATOM     23  C   UNL     1     161.678 170.742 174.801 -0.32 -0.00    +0.036 C 
ATOM     24  C   UNL     1     160.365 170.058 175.197 -0.52 +0.00    +0.006 C 
ATOM     25  C   UNL     1     160.567 168.892 176.176 -0.45 +0.00    -0.014 C 
ATOM     26  C   UNL     1     160.950 169.388 177.573 -0.25 -0.00    +0.007 C 
ATOM     27  C   UNL     1     161.596 167.892 175.626 -0.09 -0.00    +0.006 C 
ATOM     28  C   UNL     1     162.913 168.554 175.217 -0.23 -0.01    +0.036 C 
ATOM     29  N   UNL     1     162.358 169.299 172.928 -0.13 +0.04    -0.285 N 
ATOM     30  H   UNL     1     161.502 168.835 172.655 +0.10 -0.00    +0.151 HD
ATOM     31  C   UNL     1     163.364 169.532 172.026 -0.06 -0.08    +0.310 C 
ATOM     32  O   UNL     1     163.328 169.222 170.845 -0.29 +0.10    -0.252 OA
ENDBRANCH  18  19
ENDBRANCH   3  18
TORSDOF 6
TER
ENDMDL
