MODEL        1
USER    Run = 1
USER
USER    Estimated Free Energy of Binding    =  -4.69 kcal/mol  [=(1)+(2)+(3)-(4)]
USER
USER    (1) Final Intermolecular Energy     =  -5.88 kcal/mol
USER        vdW + Hbond + desolv Energy     =  -5.91 kcal/mol
USER        Electrostatic Energy            =  +0.03 kcal/mol
USER        Moving Ligand-Fixed Receptor    =  -5.88 kcal/mol
USER        Moving Ligand-Moving Receptor   =  +0.00 kcal/mol
USER    (2) Final Total Internal Energy     =  -1.20 kcal/mol
USER    (3) Torsional Free Energy           =  +1.19 kcal/mol
USER    (4) Unbound System's Energy         =  -1.20 kcal/mol
USER
USER
REMARK  Name = Z13873783
REMARK  5 active torsions:
REMARK  status: ('A' for Active; 'I' for Inactive)
REMARK    1  A    between atoms: C_1  and  N_2
REMARK    2  A    between atoms: N_2  and  C_3
REMARK    3  A    between atoms: C_3  and  C_4
REMARK    4  A    between atoms: C_12  and  C_14
REMARK    5  A    between atoms: C_14  and  N_15
REMARK                            x       y       z     vdW  Elec       q    Type
REMARK                         _______ _______ _______ _____ _____    ______ ____
USER                              x       y       z     vdW  Elec       q    Type
USER                           _______ _______ _______ _____ _____    ______ ____
ROOT
ATOM      1  C   UNL     1     165.050 170.578 172.261 -0.20 -0.06    +0.213 C 
ENDROOT
BRANCH   1   2
ATOM      2  N   UNL     1     164.980 171.551 171.194 -0.18 +0.02    -0.215 N 
ATOM      3  C   UNL     1     165.737 172.688 171.181 -0.07 +0.03    +0.247 C 
ATOM      4  O   UNL     1     166.743 172.868 171.849 -0.11 -0.02    -0.273 OA
ATOM      5  C   UNL     1     165.013 173.717 170.289 -0.28 -0.01    +0.113 C 
ATOM      6  C   UNL     1     165.868 174.591 169.385 -0.29 +0.00    +0.035 C 
ATOM      7  C   UNL     1     167.093 175.263 169.995 -0.16 +0.00    +0.002 C 
ATOM      8  C   UNL     1     166.992 175.859 171.398 -0.17 -0.00    +0.000 C 
ATOM      9  C   UNL     1     165.638 176.416 171.814 -0.12 -0.00    +0.000 C 
ATOM     10  C   UNL     1     164.634 175.358 172.265 -0.17 -0.00    +0.002 C 
ATOM     11  C   UNL     1     164.019 174.533 171.142 -0.16 -0.01    +0.035 C 
ATOM     12  N   UNL     1     164.249 172.765 169.495 -0.21 +0.06    -0.285 N 
ATOM     13  H   UNL     1     163.602 172.997 168.751 +0.03 -0.06    +0.151 HD
ATOM     14  C   UNL     1     164.140 171.548 170.130 -0.06 -0.07    +0.310 C 
ATOM     15  O   UNL     1     163.399 170.661 169.748 -0.24 +0.09    -0.252 OA
ENDBRANCH   1   2
BRANCH   1  18
ATOM     16  C   UNL     1     163.149 172.066 175.250 -0.17 -0.00    +0.132 C 
ATOM     17  N   UNL     1     163.469 171.175 174.142 -0.06 +0.05    -0.299 N 
ATOM     18  C   UNL     1     164.711 171.350 173.541 -0.13 -0.07    +0.234 C 
ATOM     19  O   UNL     1     165.491 172.219 173.950 -0.12 +0.09    -0.274 OA
BRANCH  17  20
ATOM     20  C   UNL     1     162.504 170.116 173.818 -0.11 -0.02    +0.147 C 
BRANCH  20  21
ATOM     21  C   UNL     1     162.147 169.198 174.959 -0.32 -0.00    +0.023 A 
ATOM     22  C   UNL     1     162.738 167.936 175.159 -0.33 -0.01    +0.048 A 
ATOM     23 CL   UNL     1     163.974 167.293 174.134 -0.58 +0.02    -0.083 Cl
ATOM     24  C   UNL     1     162.314 167.098 176.198 -0.36 -0.00    +0.020 A 
ATOM     25  C   UNL     1     161.277 167.486 177.040 -0.45 -0.00    +0.004 A 
ATOM     26  C   UNL     1     160.669 168.719 176.850 -0.45 -0.01    +0.039 A 
ATOM     27  C   UNL     1     161.099 169.551 175.820 -0.33 -0.01    +0.130 A 
ATOM     28  F   UNL     1     160.438 170.703 175.640 -0.12 -0.00    -0.205 F 
ENDBRANCH  20  21
ENDBRANCH  17  20
ENDBRANCH   1  18
TORSDOF 4
TER
ENDMDL
