MODEL        1
USER    Run = 1
USER
USER    Estimated Free Energy of Binding    =  -4.18 kcal/mol  [=(1)+(2)+(3)-(4)]
USER
USER    (1) Final Intermolecular Energy     =  -4.78 kcal/mol
USER        vdW + Hbond + desolv Energy     =  -4.78 kcal/mol
USER        Electrostatic Energy            =  -0.00 kcal/mol
USER        Moving Ligand-Fixed Receptor    =  -4.78 kcal/mol
USER        Moving Ligand-Moving Receptor   =  +0.00 kcal/mol
USER    (2) Final Total Internal Energy     =  -0.83 kcal/mol
USER    (3) Torsional Free Energy           =  +0.60 kcal/mol
USER    (4) Unbound System's Energy         =  -0.83 kcal/mol
USER
USER
REMARK  Name = Z13873097
REMARK  2 active torsions:
REMARK  status: ('A' for Active; 'I' for Inactive)
REMARK    1  A    between atoms: C_7  and  C_8
REMARK    2  A    between atoms: C_8  and  N_9
REMARK                            x       y       z     vdW  Elec       q    Type
REMARK                         _______ _______ _______ _____ _____    ______ ____
USER                              x       y       z     vdW  Elec       q    Type
USER                           _______ _______ _______ _____ _____    ______ ____
ROOT
ATOM      1  N   UNL     1     164.874 171.620 170.821 -0.18 +0.02    -0.220 N 
ATOM      2  C   UNL     1     165.651 172.715 171.074 -0.10 +0.03    +0.247 C 
ATOM      3  O   UNL     1     166.591 172.747 171.850 -0.12 -0.02    -0.273 OA
ATOM      4  C   UNL     1     165.061 173.908 170.286 -0.28 -0.01    +0.113 C 
ATOM      5  C   UNL     1     166.045 174.878 169.637 -0.30 +0.00    +0.035 C 
ATOM      6  C   UNL     1     167.176 175.450 170.489 -0.23 +0.00    +0.002 C 
ATOM      7  C   UNL     1     166.923 175.758 171.961 -0.14 -0.00    +0.000 C 
ATOM      8  C   UNL     1     165.543 176.293 172.315 -0.12 -0.00    +0.000 C 
ATOM      9  C   UNL     1     164.469 175.218 172.443 -0.18 -0.00    +0.002 C 
ATOM     10  C   UNL     1     163.990 174.621 171.126 -0.13 -0.01    +0.035 C 
ATOM     11  N   UNL     1     164.373 173.120 169.264 -0.22 +0.07    -0.285 N 
ATOM     12  H   UNL     1     163.860 173.492 168.475 -0.28 -0.09    +0.151 HD
ATOM     13  C   UNL     1     164.180 171.812 169.666 -0.13 -0.07    +0.310 C 
ATOM     14  O   UNL     1     163.525 171.002 169.037 -0.28 +0.09    -0.252 OA
ENDROOT
BRANCH   1  15
ATOM     15  C   UNL     1     165.002 170.364 171.525 -0.06 -0.04    +0.154 C 
BRANCH  15  18
ATOM     16 CL   UNL     1     162.982 167.932 171.851 -0.44 +0.03    -0.083 Cl
ATOM     17  C   UNL     1     163.111 169.298 172.900 -0.31 -0.01    +0.046 A 
ATOM     18  C   UNL     1     164.115 170.270 172.752 -0.30 +0.00    -0.011 A 
ATOM     19  C   UNL     1     164.223 171.259 173.749 -0.22 -0.00    +0.006 A 
ATOM     20  C   UNL     1     163.304 171.332 174.799 -0.14 -0.00    +0.000 A 
ATOM     21  C   UNL     1     162.250 170.428 174.866 -0.32 -0.00    +0.001 A 
ATOM     22  C   UNL     1     162.167 169.399 173.931 -0.31 -0.00    +0.020 A 
ENDBRANCH  15  18
ENDBRANCH   1  15
TORSDOF 2
TER
ENDMDL
