MODEL        1
USER    Run = 1
USER
USER    Estimated Free Energy of Binding    =  -4.80 kcal/mol  [=(1)+(2)+(3)-(4)]
USER
USER    (1) Final Intermolecular Energy     =  -5.40 kcal/mol
USER        vdW + Hbond + desolv Energy     =  -5.43 kcal/mol
USER        Electrostatic Energy            =  +0.03 kcal/mol
USER        Moving Ligand-Fixed Receptor    =  -5.40 kcal/mol
USER        Moving Ligand-Moving Receptor   =  +0.00 kcal/mol
USER    (2) Final Total Internal Energy     =  -1.07 kcal/mol
USER    (3) Torsional Free Energy           =  +0.60 kcal/mol
USER    (4) Unbound System's Energy         =  -1.07 kcal/mol
USER
USER
REMARK  Name = Z13873638
REMARK  2 active torsions:
REMARK  status: ('A' for Active; 'I' for Inactive)
REMARK    1  A    between atoms: C_2  and  C_3
REMARK    2  A    between atoms: C_3  and  N_4
REMARK                            x       y       z     vdW  Elec       q    Type
REMARK                         _______ _______ _______ _____ _____    ______ ____
USER                              x       y       z     vdW  Elec       q    Type
USER                           _______ _______ _______ _____ _____    ______ ____
ROOT
ATOM      1  N   UNL     1     164.720 172.092 174.438 -0.10 +0.05    -0.215 N 
ATOM      2  C   UNL     1     164.110 172.917 175.345 -0.09 -0.01    +0.247 C 
ATOM      3  O   UNL     1     162.976 173.359 175.251 -0.28 -0.09    -0.273 OA
ATOM      4  C   UNL     1     165.163 173.291 176.404 -0.21 -0.01    +0.113 C 
ATOM      5  C   UNL     1     164.705 173.450 177.848 -0.08 +0.00    +0.035 C 
ATOM      6  C   UNL     1     163.462 174.291 178.119 -0.27 +0.00    +0.002 C 
ATOM      7  C   UNL     1     163.257 175.588 177.339 -0.09 +0.00    +0.000 C 
ATOM      8  C   UNL     1     164.512 176.349 176.935 -0.10 +0.00    +0.000 C 
ATOM      9  C   UNL     1     165.203 175.791 175.694 -0.13 +0.00    +0.002 C 
ATOM     10  C   UNL     1     165.986 174.500 175.912 -0.05 -0.00    +0.035 C 
ATOM     11  N   UNL     1     165.985 172.091 176.253 -0.03 +0.11    -0.285 N 
ATOM     12  H   UNL     1     166.792 171.846 176.813 +0.09 -0.08    +0.151 HD
ATOM     13  C   UNL     1     165.775 171.479 175.034 +0.04 -0.14    +0.310 C 
ATOM     14  O   UNL     1     166.417 170.533 174.617 -0.26 +0.20    -0.252 OA
ENDROOT
BRANCH   1  15
ATOM     15  C   UNL     1     164.214 171.846 173.106 +0.10 -0.05    +0.213 C 
BRANCH  15  17
ATOM     16  O   UNL     1     165.267 169.833 172.338 -0.22 +0.09    -0.274 OA
ATOM     17  C   UNL     1     164.276 170.323 172.891 -0.20 -0.06    +0.234 C 
ATOM     18  N   UNL     1     163.279 169.509 173.401 -0.17 +0.06    -0.295 N 
ATOM     19  C   UNL     1     162.037 169.949 174.031 -0.19 -0.01    +0.143 C 
ATOM     20  C   UNL     1     161.744 169.201 175.314 -0.33 +0.00    -0.027 A 
ATOM     21  C   UNL     1     162.423 168.011 175.647 -0.30 +0.00    -0.041 A 
ATOM     22  C   UNL     1     162.122 167.352 176.846 -0.37 -0.00    +0.004 A 
ATOM     23  C   UNL     1     161.128 167.846 177.692 -0.41 -0.00    +0.000 A 
ATOM     24  C   UNL     1     160.433 169.003 177.349 -0.49 -0.00    +0.000 A 
ATOM     25  C   UNL     1     163.515 167.473 174.750 -0.44 -0.01    +0.054 C 
ATOM     26  C   UNL     1     160.740 169.678 176.168 -0.46 -0.00    +0.005 A 
ATOM     27  C   UNL     1     163.431 168.056 173.337 -0.37 -0.02    +0.113 C 
ENDBRANCH  15  17
ENDBRANCH   1  15
TORSDOF 2
TER
ENDMDL
