MODEL        1
USER    Run = 1
USER
USER    Estimated Free Energy of Binding    =  -5.25 kcal/mol  [=(1)+(2)+(3)-(4)]
USER
USER    (1) Final Intermolecular Energy     =  -5.85 kcal/mol
USER        vdW + Hbond + desolv Energy     =  -5.79 kcal/mol
USER        Electrostatic Energy            =  -0.06 kcal/mol
USER        Moving Ligand-Fixed Receptor    =  -5.85 kcal/mol
USER        Moving Ligand-Moving Receptor   =  +0.00 kcal/mol
USER    (2) Final Total Internal Energy     =  -0.76 kcal/mol
USER    (3) Torsional Free Energy           =  +0.60 kcal/mol
USER    (4) Unbound System's Energy         =  -0.76 kcal/mol
USER
USER
REMARK  Name = Z13873087
REMARK  2 active torsions:
REMARK  status: ('A' for Active; 'I' for Inactive)
REMARK    1  A    between atoms: C_6  and  C_7
REMARK    2  A    between atoms: C_7  and  N_8
REMARK                            x       y       z     vdW  Elec       q    Type
REMARK                         _______ _______ _______ _____ _____    ______ ____
USER                              x       y       z     vdW  Elec       q    Type
USER                           _______ _______ _______ _____ _____    ______ ____
ROOT
ATOM      1  N   UNL     1     162.122 171.110 175.128 -0.21 +0.00    -0.220 N 
ATOM      2  C   UNL     1     162.218 170.231 174.087 -0.04 -0.02    +0.247 C 
ATOM      3  O   UNL     1     161.302 169.526 173.686 -0.15 -0.01    -0.273 OA
ATOM      4  C   UNL     1     163.706 170.129 173.688 -0.28 -0.03    +0.113 C 
ATOM      5  C   UNL     1     164.061 170.027 172.211 -0.34 -0.01    +0.035 C 
ATOM      6  C   UNL     1     163.365 168.976 171.352 -0.34 -0.00    +0.002 C 
ATOM      7  C   UNL     1     162.931 167.640 171.954 -0.21 -0.00    +0.000 C 
ATOM      8  C   UNL     1     163.835 167.008 173.001 -0.30 -0.00    +0.000 C 
ATOM      9  C   UNL     1     163.755 167.628 174.389 -0.52 -0.00    +0.002 C 
ATOM     10  C   UNL     1     164.388 169.011 174.513 -0.31 -0.01    +0.035 C 
ATOM     11  N   UNL     1     164.129 171.417 174.236 -0.07 +0.06    -0.285 N 
ATOM     12  H   UNL     1     165.083 171.757 174.248 +0.10 -0.05    +0.151 HD
ATOM     13  C   UNL     1     163.256 171.852 175.216 +0.02 -0.02    +0.310 C 
ATOM     14  O   UNL     1     163.524 172.715 176.033 -0.20 -0.02    -0.252 OA
ENDROOT
BRANCH   1  15
ATOM     15  C   UNL     1     161.113 171.013 176.152 -0.26 +0.01    +0.153 C 
BRANCH  15  19
ATOM     16 CL   UNL     1     157.182 167.879 177.476 -0.70 +0.05    -0.084 Cl
ATOM     17  C   UNL     1     158.849 168.138 177.138 -0.41 -0.01    +0.041 A 
ATOM     18  C   UNL     1     159.279 169.384 176.682 -0.26 -0.01    +0.025 A 
ATOM     19  C   UNL     1     160.639 169.624 176.468 -0.43 +0.00    -0.028 A 
ATOM     20  C   UNL     1     161.558 168.578 176.645 -0.29 -0.00    +0.005 A 
ATOM     21  C   UNL     1     161.123 167.327 177.090 -0.41 -0.00    +0.002 A 
ATOM     22  C   UNL     1     159.768 167.114 177.356 -0.16 -0.00    +0.020 A 
ENDBRANCH  15  19
ENDBRANCH   1  15
TORSDOF 2
TER
ENDMDL
