MODEL        1
USER    Run = 1
USER
USER    Estimated Free Energy of Binding    =  -5.95 kcal/mol  [=(1)+(2)+(3)-(4)]
USER
USER    (1) Final Intermolecular Energy     =  -7.44 kcal/mol
USER        vdW + Hbond + desolv Energy     =  -7.29 kcal/mol
USER        Electrostatic Energy            =  -0.15 kcal/mol
USER        Moving Ligand-Fixed Receptor    =  -7.44 kcal/mol
USER        Moving Ligand-Moving Receptor   =  +0.00 kcal/mol
USER    (2) Final Total Internal Energy     =  -0.65 kcal/mol
USER    (3) Torsional Free Energy           =  +1.49 kcal/mol
USER    (4) Unbound System's Energy         =  -0.65 kcal/mol
USER
USER
REMARK  Name = Z13840409
REMARK  7 active torsions:
REMARK  status: ('A' for Active; 'I' for Inactive)
REMARK    1  A    between atoms: C_1  and  C_2
REMARK    2  A    between atoms: C_5  and  C_6
REMARK    3  A    between atoms: C_7  and  C_8
REMARK    4  A    between atoms: C_8  and  S_9
REMARK    5  A    between atoms: S_9  and  C_10
REMARK    6  A    between atoms: C_14  and  S_19
REMARK    7  A    between atoms: S_19  and  N_22
REMARK                            x       y       z     vdW  Elec       q    Type
REMARK                         _______ _______ _______ _____ _____    ______ ____
USER                              x       y       z     vdW  Elec       q    Type
USER                           _______ _______ _______ _____ _____    ______ ____
ROOT
ATOM      1  C   UNL     1     156.546 166.309 177.791 -0.22 -0.12    +0.258 A 
ATOM      2  O   UNL     1     155.839 165.157 177.567 -0.12 +0.20    -0.431 OA
ATOM      3  C   UNL     1     154.662 165.349 178.220 -0.16 -0.07    +0.156 A 
ATOM      4  C   UNL     1     154.707 166.592 178.829 -0.33 -0.07    +0.112 A 
ATOM      5  C   UNL     1     153.614 166.999 179.617 -0.31 -0.05    +0.060 A 
ATOM      6  C   UNL     1     152.526 166.109 179.735 -0.22 -0.07    +0.108 A 
ATOM      7  C   UNL     1     152.516 164.869 179.067 -0.30 -0.01    +0.032 A 
ATOM      8  C   UNL     1     153.600 164.459 178.287 -0.25 -0.02    +0.050 A 
ATOM      9  N   UNL     1     155.911 167.199 178.537 -0.34 +0.11    -0.203 NA
ENDROOT
BRANCH   6  10
ATOM     10  S   UNL     1     151.290 166.383 180.997 -0.39 -0.03    +0.061 S 
ATOM     11  O   UNL     1     151.309 165.223 181.864 -0.35 +0.05    -0.153 OA
ATOM     12  O   UNL     1     150.071 166.756 180.319 -0.17 +0.07    -0.153 OA
BRANCH  10  13
ATOM     13  N   UNL     1     151.809 167.713 181.925 -0.19 +0.14    -0.172 NA
ATOM     14  C   UNL     1     151.012 167.881 183.201 -0.23 -0.14    +0.137 C 
ATOM     15  C   UNL     1     149.683 168.616 182.954 -0.10 -0.18    +0.177 C 
ATOM     16  O   UNL     1     149.892 169.881 182.310 -0.04 +0.38    -0.377 OA
ATOM     17  C   UNL     1     150.570 169.715 181.058 -0.08 -0.15    +0.177 C 
ATOM     18  C   UNL     1     151.933 169.047 181.264 -0.21 -0.14    +0.137 C 
ENDBRANCH  10  13
ENDBRANCH   6  10
BRANCH   1  19
ATOM     19  S   UNL     1     158.135 166.504 177.111 -0.52 +0.02    -0.062 S 
BRANCH  19  20
ATOM     20  C   UNL     1     158.394 168.287 177.283 -0.42 -0.05    +0.119 C 
BRANCH  20  23
ATOM     21  C   UNL     1     159.124 170.734 175.218 -0.20 -0.00    +0.069 C 
ATOM     22  C   UNL     1     160.034 169.730 175.817 -0.37 -0.01    +0.085 A 
ATOM     23  C   UNL     1     159.722 168.671 176.720 -0.46 -0.01    +0.027 A 
ATOM     24  C   UNL     1     160.948 168.087 176.960 -0.35 -0.02    +0.138 A 
ATOM     25  C   UNL     1     161.403 166.964 177.803 -0.38 -0.02    +0.089 C 
ATOM     26  O   UNL     1     161.909 168.731 176.251 -0.17 +0.03    -0.359 OA
ATOM     27  N   UNL     1     161.341 169.760 175.530 -0.40 +0.00    -0.083 NA
ENDBRANCH  20  23
ENDBRANCH  19  20
ENDBRANCH   1  19
TORSDOF 5
TER
ENDMDL
