MODEL        1
USER    Run = 1
USER
USER    Estimated Free Energy of Binding    =  -4.26 kcal/mol  [=(1)+(2)+(3)-(4)]
USER
USER    (1) Final Intermolecular Energy     =  -5.45 kcal/mol
USER        vdW + Hbond + desolv Energy     =  -5.51 kcal/mol
USER        Electrostatic Energy            =  +0.06 kcal/mol
USER        Moving Ligand-Fixed Receptor    =  -5.45 kcal/mol
USER        Moving Ligand-Moving Receptor   =  +0.00 kcal/mol
USER    (2) Final Total Internal Energy     =  -1.34 kcal/mol
USER    (3) Torsional Free Energy           =  +1.19 kcal/mol
USER    (4) Unbound System's Energy         =  -1.34 kcal/mol
USER
USER
REMARK  Name = Z13864453
REMARK  5 active torsions:
REMARK  status: ('A' for Active; 'I' for Inactive)
REMARK    1  A    between atoms: C_1  and  C_2
REMARK    2  A    between atoms: N_11  and  C_12
REMARK    3  A    between atoms: C_12  and  C_13
REMARK    4  A    between atoms: C_13  and  O_14
REMARK    5  A    between atoms: O_14  and  C_15
REMARK                            x       y       z     vdW  Elec       q    Type
REMARK                         _______ _______ _______ _____ _____    ______ ____
USER                              x       y       z     vdW  Elec       q    Type
USER                           _______ _______ _______ _____ _____    ______ ____
ROOT
ATOM      1  C   UNL     1     163.350 174.652 177.746 -0.27 +0.00    +0.007 C 
ATOM      2  C   UNL     1     163.803 173.232 177.396 -0.33 -0.00    -0.014 C 
ATOM      3  C   UNL     1     165.304 173.174 177.072 -0.34 -0.00    +0.006 C 
ATOM      4  C   UNL     1     165.659 173.757 175.705 -0.10 -0.01    +0.036 C 
ATOM      5  C   UNL     1     164.779 173.228 174.581 -0.13 -0.02    +0.113 C 
ATOM      6  C   UNL     1     165.091 171.790 174.110 -0.09 -0.08    +0.247 C 
ATOM      7  O   UNL     1     165.227 170.813 174.831 -0.14 +0.12    -0.273 OA
ATOM      8  N   UNL     1     165.061 171.775 172.740 -0.14 +0.05    -0.221 N 
ATOM      9  C   UNL     1     165.089 173.054 172.271 -0.02 -0.05    +0.309 C 
ATOM     10  O   UNL     1     165.155 173.448 171.120 -0.18 +0.01    -0.252 OA
ATOM     11  N   UNL     1     165.049 173.916 173.340 -0.01 +0.05    -0.285 N 
ATOM     12  H   UNL     1     164.969 174.913 173.183 +0.07 -0.03    +0.151 HD
ATOM     13  C   UNL     1     163.278 173.291 174.904 -0.17 +0.01    +0.036 C 
ATOM     14  C   UNL     1     162.962 172.653 176.254 -0.30 +0.00    +0.006 C 
ENDROOT
BRANCH   8  15
ATOM     15  C   UNL     1     165.009 170.542 171.962 -0.23 -0.04    +0.159 C 
BRANCH  15  16
ATOM     16  C   UNL     1     163.758 169.714 172.209 -0.20 -0.06    +0.248 C 
BRANCH  16  17
ATOM     17  O   UNL     1     163.977 168.652 173.142 -0.11 +0.12    -0.490 OA
BRANCH  17  18
ATOM     18  C   UNL     1     163.076 168.670 174.184 -0.29 -0.02    +0.121 A 
ATOM     19  C   UNL     1     162.202 169.757 174.227 -0.31 -0.00    +0.047 A 
ATOM     20  C   UNL     1     161.243 169.848 175.242 -0.42 -0.00    +0.023 A 
ATOM     21  C   UNL     1     161.169 168.859 176.221 -0.38 -0.00    +0.041 A 
ATOM     22 CL   UNL     1     159.991 168.960 177.468 -0.71 +0.02    -0.084 Cl
ATOM     23  C   UNL     1     162.050 167.783 176.198 -0.36 -0.00    +0.023 A 
ATOM     24  C   UNL     1     163.003 167.691 175.185 -0.36 -0.01    +0.047 A 
ENDBRANCH  17  18
ENDBRANCH  16  17
ENDBRANCH  15  16
ENDBRANCH   8  15
TORSDOF 4
TER
ENDMDL
