MODEL        1
USER    Run = 1
USER
USER    Estimated Free Energy of Binding    =  -4.38 kcal/mol  [=(1)+(2)+(3)-(4)]
USER
USER    (1) Final Intermolecular Energy     =  -5.87 kcal/mol
USER        vdW + Hbond + desolv Energy     =  -6.00 kcal/mol
USER        Electrostatic Energy            =  +0.14 kcal/mol
USER        Moving Ligand-Fixed Receptor    =  -5.87 kcal/mol
USER        Moving Ligand-Moving Receptor   =  +0.00 kcal/mol
USER    (2) Final Total Internal Energy     =  -1.40 kcal/mol
USER    (3) Torsional Free Energy           =  +1.49 kcal/mol
USER    (4) Unbound System's Energy         =  -1.40 kcal/mol
USER
USER
REMARK  Name = Z14055834
REMARK  8 active torsions:
REMARK  status: ('A' for Active; 'I' for Inactive)
REMARK    1  A    between atoms: C_1  and  C_2
REMARK    2  A    between atoms: C_2  and  N_3
REMARK    3  A    between atoms: N_3  and  C_4
REMARK    4  A    between atoms: C_4  and  C_5
REMARK    5  A    between atoms: C_6  and  C_8
REMARK    6  A    between atoms: C_8  and  N_9
REMARK    7  A    between atoms: C_13  and  C_14
REMARK    8  A    between atoms: C_13  and  C_17
REMARK                            x       y       z     vdW  Elec       q    Type
REMARK                         _______ _______ _______ _____ _____    ______ ____
USER                              x       y       z     vdW  Elec       q    Type
USER                           _______ _______ _______ _____ _____    ______ ____
ROOT
ATOM      1  N   UNL     1     164.536 169.875 171.744 -0.17 +0.06    -0.215 N 
ATOM      2  C   UNL     1     164.595 169.578 173.079 -0.20 -0.08    +0.251 C 
ATOM      3  O   UNL     1     165.450 169.971 173.863 -0.24 +0.15    -0.272 OA
ATOM      4  C   UNL     1     163.354 168.723 173.447 -0.35 -0.03    +0.135 C 
ATOM      5  C   UNL     1     163.773 167.291 173.787 -0.48 -0.01    +0.047 C 
ATOM      6  N   UNL     1     162.694 168.701 172.157 -0.22 +0.07    -0.281 N 
ATOM      7  H   UNL     1     161.789 168.296 171.965 +0.06 -0.04    +0.152 HD
ATOM      8  C   UNL     1     163.401 169.374 171.189 -0.03 -0.11    +0.310 C 
ATOM      9  O   UNL     1     162.997 169.535 170.050 -0.31 +0.12    -0.252 OA
ENDROOT
BRANCH   4  10
ATOM     10  C   UNL     1     162.524 169.446 174.512 -0.34 +0.00    -0.015 A 
ATOM     11  C   UNL     1     161.546 168.758 175.258 -0.10 -0.00    +0.021 A 
ATOM     12  C   UNL     1     160.723 169.433 176.164 -0.44 -0.00    +0.018 A 
ATOM     13 BR   UNL     1     159.404 168.478 177.125 -0.93 +0.01    -0.050 Br
ATOM     14  C   UNL     1     160.852 170.801 176.354 -0.12 +0.00    +0.015 A 
ATOM     15  C   UNL     1     161.809 171.505 175.624 -0.35 +0.00    +0.001 A 
ATOM     16  C   UNL     1     162.631 170.835 174.712 -0.21 -0.00    +0.006 A 
ENDBRANCH   4  10
BRANCH   1  17
ATOM     17  C   UNL     1     165.375 170.861 171.102 +0.03 -0.03    +0.213 C 
BRANCH  17  19
ATOM     18  N   UNL     1     164.528 173.156 170.618 -0.11 +0.04    -0.301 N 
ATOM     19  C   UNL     1     165.137 172.305 171.557 -0.12 -0.02    +0.234 C 
ATOM     20  O   UNL     1     165.494 172.695 172.672 -0.11 +0.05    -0.274 OA
BRANCH  18  22
ATOM     21  C   UNL     1     165.632 175.378 170.951 -0.21 -0.00    +0.024 C 
ATOM     22  C   UNL     1     164.348 174.566 170.983 -0.16 -0.02    +0.104 C 
ENDBRANCH  18  22
BRANCH  18  23
ATOM     23  C   UNL     1     164.124 172.748 169.265 -0.38 -0.03    +0.104 C 
ATOM     24  C   UNL     1     162.709 173.157 168.881 -0.47 -0.01    +0.024 C 
ENDBRANCH  18  23
ENDBRANCH  17  19
ENDBRANCH   1  17
TORSDOF 5
TER
ENDMDL
