MODEL        1
USER    Run = 1
USER
USER    Estimated Free Energy of Binding    =  -3.12 kcal/mol  [=(1)+(2)+(3)-(4)]
USER
USER    (1) Final Intermolecular Energy     =  -4.31 kcal/mol
USER        vdW + Hbond + desolv Energy     =  -4.22 kcal/mol
USER        Electrostatic Energy            =  -0.09 kcal/mol
USER        Moving Ligand-Fixed Receptor    =  -4.31 kcal/mol
USER        Moving Ligand-Moving Receptor   =  +0.00 kcal/mol
USER    (2) Final Total Internal Energy     =  -2.24 kcal/mol
USER    (3) Torsional Free Energy           =  +1.19 kcal/mol
USER    (4) Unbound System's Energy         =  -2.24 kcal/mol
USER
USER
REMARK  Name = Z14019667
REMARK  8 active torsions:
REMARK  status: ('A' for Active; 'I' for Inactive)
REMARK    1  A    between atoms: C_1  and  O_2
REMARK    2  A    between atoms: O_2  and  C_3
REMARK    3  A    between atoms: C_8  and  N_9
REMARK    4  A    between atoms: C_10  and  C_12
REMARK    5  A    between atoms: C_12  and  N_13
REMARK    6  A    between atoms: C_19  and  C_20
REMARK    7  A    between atoms: C_22  and  C_23
REMARK    8  A    between atoms: C_22  and  C_24
REMARK                            x       y       z     vdW  Elec       q    Type
REMARK                         _______ _______ _______ _____ _____    ______ ____
USER                              x       y       z     vdW  Elec       q    Type
USER                           _______ _______ _______ _____ _____    ______ ____
ROOT
ATOM      1  N   UNL     1     154.460 159.484 175.281 -0.10 +0.08    -0.215 N 
ATOM      2  C   UNL     1     155.421 159.471 174.304 -0.11 -0.11    +0.247 C 
ATOM      3  O   UNL     1     156.626 159.344 174.476 -0.18 +0.10    -0.273 OA
ATOM      4  C   UNL     1     154.724 159.688 172.930 -0.09 -0.06    +0.113 C 
ATOM      5  C   UNL     1     155.070 158.571 171.937 -0.14 -0.03    +0.041 C 
ATOM      6  C   UNL     1     154.548 158.794 170.492 -0.16 +0.03    -0.032 C 
ATOM      7  C   UNL     1     155.240 157.778 169.551 -0.24 -0.01    +0.011 C 
ATOM      8  C   UNL     1     153.041 158.506 170.363 -0.20 -0.01    +0.011 C 
ATOM      9  C   UNL     1     154.904 160.220 170.003 -0.21 -0.01    +0.010 C 
ATOM     10  C   UNL     1     154.632 161.380 170.976 -0.18 +0.01    -0.011 C 
ATOM     11  C   UNL     1     153.191 161.889 170.943 -0.18 -0.00    +0.007 C 
ATOM     12  C   UNL     1     155.127 161.071 172.397 -0.18 -0.02    +0.038 C 
ATOM     13  N   UNL     1     153.347 159.638 173.379 +0.02 +0.12    -0.285 N 
ATOM     14  H   UNL     1     152.519 159.778 172.825 +0.05 -0.06    +0.151 HD
ATOM     15  C   UNL     1     153.227 159.579 174.735 +0.01 -0.12    +0.310 C 
ATOM     16  O   UNL     1     152.169 159.620 175.337 -0.04 +0.08    -0.252 OA
ENDROOT
BRANCH   1  17
ATOM     17  C   UNL     1     154.677 159.460 176.709 -0.16 -0.08    +0.214 C 
BRANCH  17  20
ATOM     18  N   UNL     1     153.276 161.397 177.311 -0.10 +0.11    -0.281 N 
ATOM     19  H   UNL     1     152.523 160.899 176.832 +0.06 -0.05    +0.155 HD
ATOM     20  C   UNL     1     154.570 160.892 177.226 -0.20 -0.11    +0.235 C 
ATOM     21  O   UNL     1     155.596 161.530 177.457 -0.31 +0.12    -0.274 OA
BRANCH  18  23
ATOM     22  C   UNL     1     151.554 163.013 177.976 -0.18 -0.03    +0.141 A 
ATOM     23  C   UNL     1     152.916 162.663 177.851 -0.21 -0.03    +0.076 A 
ATOM     24  C   UNL     1     153.880 163.583 178.282 -0.19 -0.01    +0.027 A 
ATOM     25  C   UNL     1     153.517 164.823 178.808 -0.32 -0.00    +0.002 A 
ATOM     26  C   UNL     1     152.177 165.154 178.948 -0.31 -0.00    +0.004 A 
ATOM     27  C   UNL     1     151.198 164.245 178.549 -0.26 -0.01    +0.047 A 
BRANCH  22  29
ATOM     28  C   UNL     1     150.307 162.235 176.126 -0.08 -0.07    +0.277 C 
ATOM     29  O   UNL     1     150.619 162.111 177.517 -0.04 +0.08    -0.493 OA
ENDBRANCH  22  29
ENDBRANCH  18  23
ENDBRANCH  17  20
ENDBRANCH   1  17
TORSDOF 4
TER
ENDMDL
