MODEL        1
USER    Run = 1
USER
USER    Estimated Free Energy of Binding    =  -4.57 kcal/mol  [=(1)+(2)+(3)-(4)]
USER
USER    (1) Final Intermolecular Energy     =  -6.36 kcal/mol
USER        vdW + Hbond + desolv Energy     =  -6.43 kcal/mol
USER        Electrostatic Energy            =  +0.06 kcal/mol
USER        Moving Ligand-Fixed Receptor    =  -6.36 kcal/mol
USER        Moving Ligand-Moving Receptor   =  +0.00 kcal/mol
USER    (2) Final Total Internal Energy     =  -1.63 kcal/mol
USER    (3) Torsional Free Energy           =  +1.79 kcal/mol
USER    (4) Unbound System's Energy         =  -1.63 kcal/mol
USER
USER
REMARK  Name = Z14071783
REMARK  8 active torsions:
REMARK  status: ('A' for Active; 'I' for Inactive)
REMARK    1  A    between atoms: C_1  and  C_2
REMARK    2  A    between atoms: C_2  and  C_3
REMARK    3  A    between atoms: C_3  and  C_24
REMARK    4  A    between atoms: N_7  and  C_8
REMARK    5  A    between atoms: C_8  and  C_9
REMARK    6  A    between atoms: N_11  and  C_12
REMARK    7  A    between atoms: N_11  and  C_13
REMARK    8  A    between atoms: C_13  and  C_14
REMARK                            x       y       z     vdW  Elec       q    Type
REMARK                         _______ _______ _______ _____ _____    ______ ____
USER                              x       y       z     vdW  Elec       q    Type
USER                           _______ _______ _______ _____ _____    ______ ____
ROOT
ATOM      1  C   UNL     1     163.363 167.930 174.429 -0.37 -0.03    +0.138 C 
ATOM      2  C   UNL     1     163.542 168.745 173.126 -0.26 -0.06    +0.252 C 
ATOM      3  O   UNL     1     162.777 168.746 172.168 -0.31 +0.07    -0.272 OA
ATOM      4  N   UNL     1     164.724 169.427 173.207 -0.24 +0.07    -0.215 N 
ATOM      5  C   UNL     1     165.328 169.219 174.407 -0.07 -0.15    +0.310 C 
ATOM      6  O   UNL     1     166.353 169.734 174.820 -0.25 +0.20    -0.252 OA
ATOM      7  N   UNL     1     164.579 168.313 175.124 -0.09 +0.09    -0.281 N 
ATOM      8  H   UNL     1     164.757 168.160 176.107 +0.14 -0.05    +0.152 HD
ENDROOT
BRANCH   1   9
ATOM      9  C   UNL     1     162.141 168.411 175.214 -0.27 +0.00    -0.015 A 
ATOM     10  C   UNL     1     161.652 167.642 176.291 -0.37 -0.00    +0.006 A 
ATOM     11  C   UNL     1     160.570 168.075 177.060 -0.48 -0.00    +0.000 A 
ATOM     12  C   UNL     1     159.948 169.282 176.770 -0.46 -0.00    +0.000 A 
ATOM     13  C   UNL     1     160.399 170.051 175.702 -0.47 -0.00    +0.000 A 
ATOM     14  C   UNL     1     161.481 169.619 174.928 -0.37 -0.00    +0.006 A 
ENDBRANCH   1   9
BRANCH   1  16
ATOM     15  C   UNL     1     163.751 166.064 172.644 -0.36 -0.00    +0.007 C 
ATOM     16  C   UNL     1     163.388 166.416 174.088 -0.22 -0.01    +0.037 C 
ENDBRANCH   1  16
BRANCH   4  17
ATOM     17  C   UNL     1     165.229 170.313 172.187 -0.14 -0.06    +0.213 C 
BRANCH  17  18
ATOM     18  C   UNL     1     164.660 171.731 172.328 -0.09 -0.05    +0.234 C 
ATOM     19  N   UNL     1     164.418 172.424 171.139 -0.05 +0.04    -0.299 N 
ATOM     20  C   UNL     1     164.570 171.862 169.803 -0.26 -0.02    +0.132 C 
ATOM     21  O   UNL     1     164.462 172.243 173.433 -0.12 +0.06    -0.274 OA
BRANCH  19  22
ATOM     22  C   UNL     1     164.132 173.856 171.216 -0.10 -0.03    +0.147 C 
BRANCH  22  23
ATOM     23  C   UNL     1     165.274 174.840 171.117 -0.18 -0.00    +0.023 A 
ATOM     24  C   UNL     1     165.515 175.719 172.195 -0.09 -0.01    +0.048 A 
ATOM     25 CL   UNL     1     164.639 175.590 173.685 -0.22 +0.02    -0.083 Cl
ATOM     26  C   UNL     1     166.479 176.731 172.118 -0.07 -0.00    +0.020 A 
ATOM     27  C   UNL     1     167.243 176.879 170.966 -0.14 -0.00    +0.004 A 
ATOM     28  C   UNL     1     167.065 175.988 169.913 -0.22 +0.00    +0.039 A 
ATOM     29  C   UNL     1     166.098 174.980 169.995 -0.18 +0.01    +0.130 A 
ATOM     30  F   UNL     1     165.997 174.137 168.958 -0.11 -0.03    -0.205 F 
ENDBRANCH  22  23
ENDBRANCH  19  22
ENDBRANCH  17  18
ENDBRANCH   4  17
TORSDOF 6
TER
ENDMDL
