MODEL        1
USER    Run = 1
USER
USER    Estimated Free Energy of Binding    =  -4.87 kcal/mol  [=(1)+(2)+(3)-(4)]
USER
USER    (1) Final Intermolecular Energy     =  -5.76 kcal/mol
USER        vdW + Hbond + desolv Energy     =  -5.68 kcal/mol
USER        Electrostatic Energy            =  -0.09 kcal/mol
USER        Moving Ligand-Fixed Receptor    =  -5.76 kcal/mol
USER        Moving Ligand-Moving Receptor   =  +0.00 kcal/mol
USER    (2) Final Total Internal Energy     =  -1.40 kcal/mol
USER    (3) Torsional Free Energy           =  +0.89 kcal/mol
USER    (4) Unbound System's Energy         =  -1.40 kcal/mol
USER
USER
REMARK  Name = Z14019250
REMARK  6 active torsions:
REMARK  status: ('A' for Active; 'I' for Inactive)
REMARK    1  A    between atoms: C_1  and  C_2
REMARK    2  A    between atoms: C_6  and  C_7
REMARK    3  A    between atoms: C_6  and  C_8
REMARK    4  A    between atoms: N_13  and  C_14
REMARK    5  A    between atoms: C_14  and  C_15
REMARK    6  A    between atoms: N_17  and  C_18
REMARK                            x       y       z     vdW  Elec       q    Type
REMARK                         _______ _______ _______ _____ _____    ______ ____
USER                              x       y       z     vdW  Elec       q    Type
USER                           _______ _______ _______ _____ _____    ______ ____
ROOT
ATOM      1  C   UNL     1     153.525 170.025 179.893 -0.29 -0.01    +0.007 C 
ATOM      2  C   UNL     1     152.113 169.439 179.954 -0.32 +0.01    -0.011 C 
ATOM      3  C   UNL     1     151.104 170.508 180.403 -0.17 -0.01    +0.010 C 
ATOM      4  C   UNL     1     149.656 169.975 180.503 -0.11 +0.02    -0.032 C 
ATOM      5  C   UNL     1     149.081 169.760 179.091 -0.09 -0.01    +0.011 C 
ATOM      6  C   UNL     1     148.772 171.053 181.164 -0.07 -0.01    +0.011 C 
ATOM      7  C   UNL     1     149.613 168.682 181.373 -0.12 -0.03    +0.041 C 
ATOM      8  C   UNL     1     150.662 167.619 181.027 -0.15 -0.07    +0.113 C 
ATOM      9  C   UNL     1     150.339 166.713 179.816 -0.09 -0.13    +0.247 C 
ATOM     10  O   UNL     1     149.727 167.009 178.803 -0.10 +0.16    -0.273 OA
ATOM     11  N   UNL     1     150.885 165.489 180.053 -0.18 +0.07    -0.215 N 
ATOM     12  C   UNL     1     151.037 165.328 181.388 -0.21 -0.10    +0.310 C 
ATOM     13  O   UNL     1     151.359 164.300 181.962 -0.28 +0.05    -0.252 OA
ATOM     14  N   UNL     1     150.731 166.530 182.001 -0.15 +0.16    -0.285 N 
ATOM     15  H   UNL     1     150.877 166.642 182.997 +0.07 -0.12    +0.151 HD
ATOM     16  C   UNL     1     152.072 168.229 180.892 -0.29 -0.03    +0.038 C 
ENDROOT
BRANCH  11  17
ATOM     17  C   UNL     1     151.032 164.456 179.056 -0.21 -0.05    +0.214 C 
BRANCH  17  18
ATOM     18  C   UNL     1     152.491 164.466 178.599 -0.24 -0.09    +0.235 C 
ATOM     19  N   UNL     1     153.046 165.737 178.561 -0.15 +0.18    -0.284 N 
ATOM     20  H   UNL     1     152.400 166.522 178.611 -0.21 -0.16    +0.155 HD
ATOM     21  O   UNL     1     153.035 163.435 178.215 -0.23 +0.09    -0.274 OA
BRANCH  19  22
ATOM     22  C   UNL     1     154.395 166.051 178.266 -0.21 -0.02    +0.037 A 
ATOM     23  C   UNL     1     154.802 167.384 178.420 -0.32 -0.05    +0.073 A 
ATOM     24  C   UNL     1     156.113 167.705 178.115 -0.34 -0.10    +0.168 A 
ATOM     25  C   UNL     1     157.016 166.761 177.693 -0.29 -0.08    +0.166 A 
ATOM     26  O   UNL     1     158.241 167.283 177.442 -0.15 +0.18    -0.453 OA
ATOM     27  C   UNL     1     158.007 168.674 177.741 -0.03 -0.22    +0.466 C 
ATOM     28  C   UNL     1     156.655 165.438 177.555 -0.33 -0.02    +0.051 A 
ATOM     29  O   UNL     1     156.661 168.946 178.187 -0.18 +0.30    -0.453 OA
ATOM     30  C   UNL     1     155.333 165.086 177.847 -0.20 -0.01    +0.027 A 
ENDBRANCH  19  22
ENDBRANCH  17  18
ENDBRANCH  11  17
TORSDOF 3
TER
ENDMDL
