MODEL        1
USER    Run = 1
USER
USER    Estimated Free Energy of Binding    =  -5.44 kcal/mol  [=(1)+(2)+(3)-(4)]
USER
USER    (1) Final Intermolecular Energy     =  -6.93 kcal/mol
USER        vdW + Hbond + desolv Energy     =  -6.78 kcal/mol
USER        Electrostatic Energy            =  -0.15 kcal/mol
USER        Moving Ligand-Fixed Receptor    =  -6.93 kcal/mol
USER        Moving Ligand-Moving Receptor   =  +0.00 kcal/mol
USER    (2) Final Total Internal Energy     =  -2.26 kcal/mol
USER    (3) Torsional Free Energy           =  +1.49 kcal/mol
USER    (4) Unbound System's Energy         =  -2.26 kcal/mol
USER
USER
REMARK  Name = Z14078549
REMARK  6 active torsions:
REMARK  status: ('A' for Active; 'I' for Inactive)
REMARK    1  A    between atoms: C_1  and  C_2
REMARK    2  A    between atoms: C_2  and  C_19
REMARK    3  A    between atoms: N_6  and  C_7
REMARK    4  A    between atoms: C_7  and  C_8
REMARK    5  A    between atoms: N_10  and  C_11
REMARK    6  A    between atoms: C_11  and  C_12
REMARK                            x       y       z     vdW  Elec       q    Type
REMARK                         _______ _______ _______ _____ _____    ______ ____
USER                              x       y       z     vdW  Elec       q    Type
USER                           _______ _______ _______ _____ _____    ______ ____
ROOT
ATOM      1  C   UNL     1     163.920 167.205 173.374 -0.40 -0.01    +0.047 C 
ATOM      2  C   UNL     1     163.905 168.680 173.764 -0.37 -0.03    +0.136 C 
ATOM      3  C   UNL     1     164.127 169.587 172.511 -0.19 -0.07    +0.251 C 
ATOM      4  O   UNL     1     163.593 169.464 171.414 -0.27 +0.09    -0.272 OA
ATOM      5  N   UNL     1     165.001 170.585 172.831 -0.21 +0.07    -0.215 N 
ATOM      6  C   UNL     1     165.622 170.278 173.990 +0.02 -0.18    +0.310 C 
ATOM      7  O   UNL     1     166.519 170.888 174.545 -0.26 +0.19    -0.252 OA
ATOM      8  N   UNL     1     165.104 169.102 174.465 -0.22 +0.12    -0.281 N 
ATOM      9  H   UNL     1     165.433 168.785 175.364 +0.10 -0.07    +0.152 HD
ENDROOT
BRANCH   2  10
ATOM     10  C   UNL     1     162.604 169.018 174.527 -0.35 +0.00    -0.008 A 
ATOM     11  C   UNL     1     162.092 168.236 175.624 -0.33 +0.00    -0.012 A 
ATOM     12  C   UNL     1     160.892 168.660 176.263 -0.38 +0.00    -0.018 A 
ATOM     13  C   UNL     1     160.369 167.954 177.358 -0.45 -0.00    +0.008 A 
ATOM     14  C   UNL     1     161.000 166.817 177.852 -0.20 -0.00    +0.001 A 
ATOM     15  C   UNL     1     162.147 166.358 177.236 -0.25 -0.00    +0.001 A 
ATOM     16  C   UNL     1     160.201 169.786 175.803 -0.45 -0.00    +0.008 A 
ATOM     17  C   UNL     1     160.662 170.502 174.708 -0.37 +0.00    +0.001 A 
ATOM     18  C   UNL     1     162.664 167.040 176.130 -0.32 -0.00    +0.009 A 
ATOM     19  C   UNL     1     161.841 170.123 174.082 -0.19 -0.00    +0.007 A 
ENDBRANCH   2  10
BRANCH   5  20
ATOM     20  C   UNL     1     165.317 171.742 172.023 -0.17 -0.03    +0.213 C 
BRANCH  20  21
ATOM     21  C   UNL     1     164.820 173.032 172.662 -0.04 -0.04    +0.231 C 
ATOM     22  N   UNL     1     165.306 173.282 173.926 +0.02 +0.07    -0.311 N 
ATOM     23  H   UNL     1     165.857 172.574 174.407 +0.10 -0.05    +0.149 HD
ATOM     24  O   UNL     1     164.108 173.829 172.055 -0.09 +0.06    -0.274 OA
BRANCH  22  25
ATOM     25  C   UNL     1     164.913 174.461 174.679 -0.09 -0.01    +0.135 C 
BRANCH  25  26
ATOM     26  C   UNL     1     163.954 174.155 175.833 -0.15 +0.04    +0.135 C 
ATOM     27  O   UNL     1     163.388 175.374 176.358 -0.64 -0.39    -0.375 OA
ATOM     28  C   UNL     1     163.198 175.203 177.770 -0.12 +0.10    +0.160 C 
ATOM     29  C   UNL     1     163.561 173.773 178.110 -0.21 +0.01    +0.030 C 
ATOM     30  C   UNL     1     164.550 173.427 177.025 -0.31 +0.00    +0.035 C 
ENDBRANCH  25  26
ENDBRANCH  22  25
ENDBRANCH  20  21
ENDBRANCH   5  20
TORSDOF 5
TER
ENDMDL
