MODEL        1
USER    Run = 1
USER
USER    Estimated Free Energy of Binding    =  -5.03 kcal/mol  [=(1)+(2)+(3)-(4)]
USER
USER    (1) Final Intermolecular Energy     =  -6.52 kcal/mol
USER        vdW + Hbond + desolv Energy     =  -6.53 kcal/mol
USER        Electrostatic Energy            =  +0.00 kcal/mol
USER        Moving Ligand-Fixed Receptor    =  -6.52 kcal/mol
USER        Moving Ligand-Moving Receptor   =  +0.00 kcal/mol
USER    (2) Final Total Internal Energy     =  -1.84 kcal/mol
USER    (3) Torsional Free Energy           =  +1.49 kcal/mol
USER    (4) Unbound System's Energy         =  -1.84 kcal/mol
USER
USER
REMARK  Name = Z14043441
REMARK  6 active torsions:
REMARK  status: ('A' for Active; 'I' for Inactive)
REMARK    1  A    between atoms: C_1  and  C_2
REMARK    2  A    between atoms: C_2  and  C_3
REMARK    3  A    between atoms: C_3  and  C_4
REMARK    4  A    between atoms: C_4  and  C_5
REMARK    5  A    between atoms: N_14  and  C_15
REMARK    6  A    between atoms: C_15  and  C_16
REMARK                            x       y       z     vdW  Elec       q    Type
REMARK                         _______ _______ _______ _____ _____    ______ ____
USER                              x       y       z     vdW  Elec       q    Type
USER                           _______ _______ _______ _____ _____    ______ ____
ROOT
ATOM      1  C   UNL     1     159.361 169.729 175.986 -0.36 -0.01    +0.041 C 
ATOM      2  C   UNL     1     160.859 169.659 176.252 -0.43 -0.01    +0.110 C 
ATOM      3  C   UNL     1     161.609 169.294 174.953 -0.17 -0.01    +0.247 C 
ATOM      4  O   UNL     1     161.550 169.924 173.905 -0.26 +0.01    -0.273 OA
ATOM      5  N   UNL     1     162.347 168.170 175.181 -0.24 +0.02    -0.218 N 
ATOM      6  C   UNL     1     162.138 167.702 176.437 -0.16 -0.03    +0.310 C 
ATOM      7  O   UNL     1     162.641 166.723 176.961 -0.35 +0.04    -0.252 OA
ATOM      8  N   UNL     1     161.208 168.507 177.053 -0.25 +0.03    -0.285 N 
ATOM      9  H   UNL     1     160.967 168.352 178.025 -0.02 -0.04    +0.151 HD
ENDROOT
BRANCH   5  10
ATOM     10  C   UNL     1     163.269 167.587 174.240 -0.29 -0.04    +0.180 C 
BRANCH  10  11
ATOM     11  C   UNL     1     163.932 168.658 173.419 -0.33 -0.02    +0.097 A 
ATOM     12  S   UNL     1     163.378 168.926 171.813 -0.49 +0.02    -0.070 S 
ATOM     13  C   UNL     1     164.342 170.347 171.719 -0.23 -0.01    +0.039 A 
ATOM     14  C   UNL     1     165.104 170.458 172.883 -0.23 -0.03    +0.079 A 
ATOM     15  C   UNL     1     165.978 171.557 173.017 -0.17 -0.01    +0.029 A 
ATOM     16  C   UNL     1     166.030 172.528 172.011 -0.17 -0.00    +0.002 A 
ATOM     17  C   UNL     1     165.246 172.406 170.868 -0.25 +0.00    +0.001 A 
ATOM     18  C   UNL     1     164.404 171.304 170.694 -0.20 -0.00    +0.017 A 
ATOM     19  N   UNL     1     164.890 169.467 173.829 -0.22 +0.09    -0.242 NA
ENDBRANCH  10  11
ENDBRANCH   5  10
BRANCH   2  20
ATOM     20  C   UNL     1     161.457 170.949 176.827 -0.11 +0.00    +0.039 C 
BRANCH  20  21
ATOM     21  C   UNL     1     161.587 172.079 175.800 -0.34 +0.01    +0.037 C 
BRANCH  21  22
ATOM     22  C   UNL     1     162.896 172.807 175.967 -0.23 -0.01    -0.047 A 
ATOM     23  C   UNL     1     163.617 173.235 174.845 -0.17 +0.00    +0.003 A 
ATOM     24  C   UNL     1     164.801 173.956 175.002 -0.14 -0.00    +0.000 A 
ATOM     25  C   UNL     1     165.270 174.258 176.280 -0.18 +0.00    +0.000 A 
ATOM     26  C   UNL     1     164.558 173.835 177.401 -0.27 +0.00    +0.000 A 
ATOM     27  C   UNL     1     163.376 173.113 177.247 -0.27 +0.00    +0.003 A 
ENDBRANCH  21  22
ENDBRANCH  20  21
ENDBRANCH   2  20
TORSDOF 5
TER
ENDMDL
