MODEL        1
USER    Run = 1
USER
USER    Estimated Free Energy of Binding    =  -5.22 kcal/mol  [=(1)+(2)+(3)-(4)]
USER
USER    (1) Final Intermolecular Energy     =  -7.30 kcal/mol
USER        vdW + Hbond + desolv Energy     =  -7.21 kcal/mol
USER        Electrostatic Energy            =  -0.10 kcal/mol
USER        Moving Ligand-Fixed Receptor    =  -7.30 kcal/mol
USER        Moving Ligand-Moving Receptor   =  +0.00 kcal/mol
USER    (2) Final Total Internal Energy     =  -0.53 kcal/mol
USER    (3) Torsional Free Energy           =  +2.09 kcal/mol
USER    (4) Unbound System's Energy         =  -0.53 kcal/mol
USER
USER
REMARK  Name = Z14001725
REMARK  8 active torsions:
REMARK  status: ('A' for Active; 'I' for Inactive)
REMARK    1  A    between atoms: C_1  and  O_2
REMARK    2  A    between atoms: O_2  and  C_3
REMARK    3  A    between atoms: C_6  and  C_9
REMARK    4  A    between atoms: C_12  and  S_13
REMARK    5  A    between atoms: S_13  and  C_14
REMARK    6  A    between atoms: C_14  and  C_15
REMARK    7  A    between atoms: C_15  and  O_16
REMARK    8  A    between atoms: O_16  and  C_17
REMARK                            x       y       z     vdW  Elec       q    Type
REMARK                         _______ _______ _______ _____ _____    ______ ____
USER                              x       y       z     vdW  Elec       q    Type
USER                           _______ _______ _______ _____ _____    ______ ____
ROOT
ATOM      1  C   UNL     1     155.062 166.373 178.472 -0.22 -0.13    +0.249 A 
ATOM      2  O   UNL     1     155.553 167.651 178.541 -0.27 +0.26    -0.411 OA
ATOM      3  C   UNL     1     156.697 167.553 177.793 -0.24 -0.15    +0.278 A 
ATOM      4  N   UNL     1     156.881 166.342 177.311 -0.40 +0.05    -0.101 NA
ATOM      5  N   UNL     1     155.821 165.579 177.745 -0.32 +0.05    -0.106 NA
ENDROOT
BRANCH   1   9
ATOM      6  C   UNL     1     151.602 165.252 180.712 -0.26 -0.04    +0.120 A 
ATOM      7  C   UNL     1     152.459 166.234 181.213 -0.28 -0.03    +0.046 A 
ATOM      8  C   UNL     1     153.585 166.632 180.481 -0.36 -0.01    +0.017 A 
ATOM      9  C   UNL     1     153.859 166.059 179.231 -0.34 -0.02    +0.039 A 
ATOM     10  C   UNL     1     152.954 165.122 178.714 -0.31 -0.01    +0.017 A 
ATOM     11  C   UNL     1     151.832 164.719 179.446 -0.28 -0.01    +0.046 A 
BRANCH   6  13
ATOM     12  C   UNL     1     149.744 165.990 181.959 -0.23 -0.11    +0.277 C 
ATOM     13  O   UNL     1     150.557 164.901 181.526 -0.21 +0.08    -0.495 OA
ENDBRANCH   6  13
ENDBRANCH   1   9
BRANCH   3  14
ATOM     14  S   UNL     1     157.748 168.902 177.484 -0.64 +0.03    -0.062 S 
BRANCH  14  15
ATOM     15  C   UNL     1     159.215 168.038 176.828 -0.39 -0.03    +0.120 C 
BRANCH  15  16
ATOM     16  C   UNL     1     160.508 168.666 177.343 -0.35 -0.05    +0.240 C 
BRANCH  16  17
ATOM     17  O   UNL     1     161.615 167.831 176.993 -0.16 +0.05    -0.491 OA
BRANCH  17  18
ATOM     18  C   UNL     1     162.228 168.123 175.801 -0.24 -0.01    +0.121 A 
ATOM     19  C   UNL     1     161.838 169.331 175.216 -0.33 -0.00    +0.048 A 
ATOM     20  C   UNL     1     162.389 169.739 173.999 -0.30 -0.01    +0.042 A 
ATOM     21  C   UNL     1     163.330 168.933 173.371 -0.29 -0.03    +0.124 A 
ATOM     22  F   UNL     1     163.862 169.321 172.204 -0.07 +0.05    -0.205 F 
ATOM     23  C   UNL     1     163.729 167.730 173.937 -0.41 -0.01    +0.042 A 
ATOM     24  C   UNL     1     163.177 167.322 175.153 -0.31 -0.01    +0.048 A 
ENDBRANCH  17  18
ENDBRANCH  16  17
ENDBRANCH  15  16
ENDBRANCH  14  15
ENDBRANCH   3  14
TORSDOF 7
TER
ENDMDL
