MODEL        1
USER    Run = 1
USER
USER    Estimated Free Energy of Binding    =  -3.37 kcal/mol  [=(1)+(2)+(3)-(4)]
USER
USER    (1) Final Intermolecular Energy     =  -4.27 kcal/mol
USER        vdW + Hbond + desolv Energy     =  -4.14 kcal/mol
USER        Electrostatic Energy            =  -0.13 kcal/mol
USER        Moving Ligand-Fixed Receptor    =  -4.27 kcal/mol
USER        Moving Ligand-Moving Receptor   =  +0.00 kcal/mol
USER    (2) Final Total Internal Energy     =  -2.56 kcal/mol
USER    (3) Torsional Free Energy           =  +0.89 kcal/mol
USER    (4) Unbound System's Energy         =  -2.56 kcal/mol
USER
USER
REMARK  Name = Z14052635
REMARK  4 active torsions:
REMARK  status: ('A' for Active; 'I' for Inactive)
REMARK    1  A    between atoms: C_1  and  C_2
REMARK    2  A    between atoms: C_2  and  C_22
REMARK    3  A    between atoms: N_6  and  C_7
REMARK    4  A    between atoms: C_7  and  C_8
REMARK                            x       y       z     vdW  Elec       q    Type
REMARK                         _______ _______ _______ _____ _____    ______ ____
USER                              x       y       z     vdW  Elec       q    Type
USER                           _______ _______ _______ _____ _____    ______ ____
ROOT
ATOM      1  C   UNL     1     156.188 174.206 177.787 -0.33 -0.01    +0.047 C 
ATOM      2  C   UNL     1     155.544 174.863 179.007 -0.25 -0.05    +0.135 C 
ATOM      3  C   UNL     1     156.252 176.208 179.343 -0.06 -0.03    +0.251 C 
ATOM      4  O   UNL     1     156.442 177.136 178.566 -0.09 +0.02    -0.272 OA
ATOM      5  N   UNL     1     156.640 176.185 180.653 -0.11 +0.02    -0.215 N 
ATOM      6  C   UNL     1     156.396 174.970 181.195 -0.19 -0.03    +0.310 C 
ATOM      7  O   UNL     1     156.630 174.604 182.335 -0.86 -0.03    -0.252 OA
ATOM      8  N   UNL     1     155.870 174.150 180.227 -0.20 +0.11    -0.281 N 
ATOM      9  H   UNL     1     155.553 173.224 180.471 -0.39 -0.12    +0.152 HD
ENDROOT
BRANCH   2  10
ATOM     10  C   UNL     1     154.033 174.986 178.805 -0.22 +0.01    -0.015 A 
ATOM     11  C   UNL     1     153.135 174.161 179.505 -0.15 -0.00    +0.006 A 
ATOM     12  C   UNL     1     151.753 174.309 179.360 -0.17 -0.00    +0.000 A 
ATOM     13  C   UNL     1     151.238 175.293 178.523 -0.17 -0.00    +0.000 A 
ATOM     14  C   UNL     1     152.105 176.133 177.832 -0.18 -0.00    +0.000 A 
ATOM     15  C   UNL     1     153.487 175.986 177.976 -0.21 -0.00    +0.006 A 
ENDBRANCH   2  10
BRANCH   5  16
ATOM     16  C   UNL     1     157.213 177.305 181.373 -0.06 -0.02    +0.213 C 
BRANCH  16  17
ATOM     17  C   UNL     1     156.311 178.538 181.237 +0.01 -0.03    +0.234 C 
ATOM     18  N   UNL     1     155.138 178.561 181.985 -0.01 +0.04    -0.295 N 
ATOM     19  C   UNL     1     154.494 177.404 182.605 -0.11 -0.00    +0.143 C 
ATOM     20  C   UNL     1     153.034 177.268 182.207 -0.12 +0.01    -0.027 A 
ATOM     21  C   UNL     1     152.351 178.311 181.544 -0.01 +0.01    -0.041 A 
ATOM     22  C   UNL     1     151.002 178.154 181.195 -0.00 -0.00    +0.004 A 
ATOM     23  C   UNL     1     150.320 176.985 181.526 -0.02 -0.00    +0.000 A 
ATOM     24  C   UNL     1     150.981 175.962 182.201 -0.10 -0.00    +0.000 A 
ATOM     25  C   UNL     1     153.076 179.578 181.152 -0.01 -0.01    +0.054 C 
ATOM     26  C   UNL     1     152.328 176.101 182.541 -0.14 -0.00    +0.005 A 
ATOM     27  C   UNL     1     154.330 179.776 181.997 -0.02 -0.02    +0.113 C 
ATOM     28  O   UNL     1     156.639 179.496 180.531 +0.01 +0.04    -0.274 OA
ENDBRANCH  16  17
ENDBRANCH   5  16
TORSDOF 3
TER
ENDMDL
