MODEL        1
USER    Run = 1
USER
USER    Estimated Free Energy of Binding    =  -5.07 kcal/mol  [=(1)+(2)+(3)-(4)]
USER
USER    (1) Final Intermolecular Energy     =  -5.97 kcal/mol
USER        vdW + Hbond + desolv Energy     =  -6.05 kcal/mol
USER        Electrostatic Energy            =  +0.08 kcal/mol
USER        Moving Ligand-Fixed Receptor    =  -5.97 kcal/mol
USER        Moving Ligand-Moving Receptor   =  +0.00 kcal/mol
USER    (2) Final Total Internal Energy     =  -1.10 kcal/mol
USER    (3) Torsional Free Energy           =  +0.89 kcal/mol
USER    (4) Unbound System's Energy         =  -1.10 kcal/mol
USER
USER
REMARK  Name = Z14060596
REMARK  6 active torsions:
REMARK  status: ('A' for Active; 'I' for Inactive)
REMARK    1  A    between atoms: C_1  and  C_2
REMARK    2  A    between atoms: C_5  and  C_6
REMARK    3  A    between atoms: C_6  and  N_7
REMARK    4  A    between atoms: C_11  and  C_12
REMARK    5  A    between atoms: C_11  and  C_15
REMARK    6  A    between atoms: C_18  and  C_19
REMARK                            x       y       z     vdW  Elec       q    Type
REMARK                         _______ _______ _______ _____ _____    ______ ____
USER                              x       y       z     vdW  Elec       q    Type
USER                           _______ _______ _______ _____ _____    ______ ____
ROOT
ATOM      1  N   UNL     1     164.537 169.813 172.531 -0.22 +0.06    -0.220 N 
ATOM      2  C   UNL     1     164.686 169.046 173.654 -0.22 -0.08    +0.251 C 
ATOM      3  O   UNL     1     165.577 169.162 174.487 -0.33 +0.14    -0.272 OA
ATOM      4  C   UNL     1     163.529 168.014 173.706 -0.38 -0.03    +0.135 C 
ATOM      5  C   UNL     1     164.136 166.607 173.708 -0.36 -0.01    +0.047 C 
ATOM      6  N   UNL     1     162.924 168.290 172.421 -0.20 +0.07    -0.281 N 
ATOM      7  H   UNL     1     162.103 167.832 172.048 +0.07 -0.04    +0.152 HD
ATOM      8  C   UNL     1     163.516 169.342 171.765 -0.12 -0.09    +0.310 C 
ATOM      9  O   UNL     1     163.169 169.732 170.663 -0.24 +0.10    -0.252 OA
ENDROOT
BRANCH   4  10
ATOM     10  C   UNL     1     162.521 168.290 174.821 -0.30 +0.00    -0.015 A 
ATOM     11  C   UNL     1     161.717 169.445 174.809 -0.34 -0.00    +0.006 A 
ATOM     12  C   UNL     1     160.751 169.671 175.794 -0.46 -0.00    +0.003 A 
ATOM     13  C   UNL     1     160.545 168.740 176.813 -0.45 +0.01    -0.050 A 
ATOM     14  C   UNL     1     159.483 168.984 177.843 -0.40 -0.01    +0.044 C 
ATOM     15  C   UNL     1     161.340 167.593 176.846 -0.43 -0.00    +0.003 A 
ATOM     16  C   UNL     1     162.309 167.368 175.860 -0.36 -0.00    +0.006 A 
ENDBRANCH   4  10
BRANCH   1  17
ATOM     17  C   UNL     1     165.378 170.929 172.172 -0.23 -0.04    +0.153 C 
BRANCH  17  22
ATOM     18  C   UNL     1     163.748 176.028 174.502 -0.14 +0.00    +0.044 C 
ATOM     19  C   UNL     1     164.105 174.701 173.900 -0.13 +0.00    -0.050 A 
ATOM     20  C   UNL     1     164.480 174.623 172.555 -0.16 -0.00    +0.003 A 
ATOM     21  C   UNL     1     164.866 173.401 171.995 -0.16 -0.00    +0.005 A 
ATOM     22  C   UNL     1     164.898 172.234 172.771 -0.17 +0.01    -0.029 A 
ATOM     23  C   UNL     1     164.486 172.307 174.109 -0.18 -0.00    +0.005 A 
ATOM     24  C   UNL     1     164.098 173.531 174.670 -0.16 -0.00    +0.003 A 
ENDBRANCH  17  22
ENDBRANCH   1  17
TORSDOF 3
TER
ENDMDL
