MODEL        1
USER    Run = 1
USER
USER    Estimated Free Energy of Binding    =  -4.42 kcal/mol  [=(1)+(2)+(3)-(4)]
USER
USER    (1) Final Intermolecular Energy     =  -5.61 kcal/mol
USER        vdW + Hbond + desolv Energy     =  -5.66 kcal/mol
USER        Electrostatic Energy            =  +0.04 kcal/mol
USER        Moving Ligand-Fixed Receptor    =  -5.61 kcal/mol
USER        Moving Ligand-Moving Receptor   =  +0.00 kcal/mol
USER    (2) Final Total Internal Energy     =  -2.12 kcal/mol
USER    (3) Torsional Free Energy           =  +1.19 kcal/mol
USER    (4) Unbound System's Energy         =  -2.12 kcal/mol
USER
USER
REMARK  Name = Z14055786
REMARK  7 active torsions:
REMARK  status: ('A' for Active; 'I' for Inactive)
REMARK    1  A    between atoms: C_1  and  C_2
REMARK    2  A    between atoms: C_2  and  C_3
REMARK    3  A    between atoms: C_2  and  N_4
REMARK    4  A    between atoms: C_5  and  C_7
REMARK    5  A    between atoms: C_7  and  N_8
REMARK    6  A    between atoms: C_12  and  C_13
REMARK    7  A    between atoms: C_12  and  C_16
REMARK                            x       y       z     vdW  Elec       q    Type
REMARK                         _______ _______ _______ _____ _____    ______ ____
USER                              x       y       z     vdW  Elec       q    Type
USER                           _______ _______ _______ _____ _____    ______ ____
ROOT
ATOM      1  N   UNL     1     164.775 170.096 172.849 -0.23 +0.07    -0.215 N 
ATOM      2  C   UNL     1     164.791 169.162 173.840 -0.22 -0.09    +0.251 C 
ATOM      3  O   UNL     1     165.588 169.147 174.769 -0.33 +0.14    -0.272 OA
ATOM      4  C   UNL     1     163.621 168.166 173.616 -0.38 -0.03    +0.135 C 
ATOM      5  C   UNL     1     164.124 166.746 173.351 -0.39 -0.01    +0.047 C 
ATOM      6  N   UNL     1     163.103 168.710 172.377 -0.21 +0.07    -0.281 N 
ATOM      7  H   UNL     1     162.464 168.233 171.757 +0.07 -0.06    +0.152 HD
ATOM      8  C   UNL     1     163.866 169.753 171.902 -0.11 -0.08    +0.310 C 
ATOM      9  O   UNL     1     163.751 170.210 170.778 -0.22 +0.09    -0.252 OA
ENDROOT
BRANCH   4  10
ATOM     10  C   UNL     1     162.655 168.252 174.792 -0.34 +0.00    -0.015 A 
ATOM     11  C   UNL     1     162.637 167.206 175.740 -0.36 -0.00    +0.021 A 
ATOM     12  C   UNL     1     161.839 167.286 176.882 -0.41 -0.00    +0.018 A 
ATOM     13 BR   UNL     1     161.882 165.884 178.151 -0.23 +0.01    -0.050 Br
ATOM     14  C   UNL     1     161.038 168.400 177.106 -0.44 -0.00    +0.015 A 
ATOM     15  C   UNL     1     161.032 169.437 176.174 -0.44 -0.00    +0.001 A 
ATOM     16  C   UNL     1     161.835 169.367 175.027 -0.36 -0.00    +0.006 A 
ENDBRANCH   4  10
BRANCH   1  17
ATOM     17  C   UNL     1     165.686 171.216 172.758 -0.15 -0.08    +0.213 C 
BRANCH  17  20
ATOM     18  N   UNL     1     164.847 172.081 174.909 -0.03 +0.08    -0.312 N 
ATOM     19  H   UNL     1     164.834 171.104 175.192 +0.11 -0.05    +0.149 HD
ATOM     20  C   UNL     1     165.172 172.391 173.599 -0.07 -0.06    +0.231 C 
ATOM     21  O   UNL     1     165.132 173.537 173.158 -0.08 +0.05    -0.274 OA
BRANCH  18  23
ATOM     22  C   UNL     1     162.975 172.802 176.345 -0.31 +0.01    +0.027 C 
ATOM     23  C   UNL     1     164.394 173.092 175.859 -0.21 -0.00    +0.067 C 
ATOM     24  C   UNL     1     165.356 173.180 177.041 -0.32 -0.00    +0.027 C 
ENDBRANCH  18  23
ENDBRANCH  17  20
ENDBRANCH   1  17
TORSDOF 4
TER
ENDMDL
