MODEL        1
USER    Run = 1
USER
USER    Estimated Free Energy of Binding    =  -2.53 kcal/mol  [=(1)+(2)+(3)-(4)]
USER
USER    (1) Final Intermolecular Energy     =  -4.62 kcal/mol
USER        vdW + Hbond + desolv Energy     =  -4.04 kcal/mol
USER        Electrostatic Energy            =  -0.58 kcal/mol
USER        Moving Ligand-Fixed Receptor    =  -4.62 kcal/mol
USER        Moving Ligand-Moving Receptor   =  +0.00 kcal/mol
USER    (2) Final Total Internal Energy     =  -3.41 kcal/mol
USER    (3) Torsional Free Energy           =  +2.09 kcal/mol
USER    (4) Unbound System's Energy         =  -3.41 kcal/mol
USER
USER
REMARK  Name = Z14087284
REMARK  11 active torsions:
REMARK  status: ('A' for Active; 'I' for Inactive)
REMARK    1  A    between atoms: C_1  and  C_2
REMARK    2  A    between atoms: C_2  and  C_3
REMARK    3  A    between atoms: C_2  and  C_4
REMARK    4  A    between atoms: C_2  and  N_5
REMARK    5  A    between atoms: N_5  and  C_6
REMARK    6  A    between atoms: C_6  and  C_7
REMARK    7  A    between atoms: C_13  and  C_15
REMARK    8  A    between atoms: C_15  and  N_16
REMARK    9  A    between atoms: C_20  and  C_21
REMARK   10  A    between atoms: C_20  and  C_24
REMARK   11  A    between atoms: C_27  and  N_30
REMARK                            x       y       z     vdW  Elec       q    Type
REMARK                         _______ _______ _______ _____ _____    ______ ____
USER                              x       y       z     vdW  Elec       q    Type
USER                           _______ _______ _______ _____ _____    ______ ____
ROOT
ATOM      1  N   UNL     1     165.627 177.294 175.361 -0.01 -0.01    -0.215 N 
ATOM      2  C   UNL     1     164.516 176.525 175.137 -0.02 +0.04    +0.251 C 
ATOM      3  O   UNL     1     163.390 176.949 174.892 -0.33 -0.13    -0.272 OA
ATOM      4  C   UNL     1     164.931 175.027 175.160 -0.09 +0.00    +0.135 C 
ATOM      5  C   UNL     1     164.101 174.208 176.148 -0.22 +0.01    +0.047 C 
ATOM      6  N   UNL     1     166.279 175.184 175.658 +0.01 +0.02    -0.281 N 
ATOM      7  H   UNL     1     166.897 174.440 175.945 +0.11 -0.04    +0.152 HD
ATOM      8  C   UNL     1     166.660 176.505 175.757 +0.05 +0.03    +0.310 C 
ATOM      9  O   UNL     1     167.759 176.863 176.148 -0.56 -0.04    -0.252 OA
ENDROOT
BRANCH   4  10
ATOM     10  C   UNL     1     164.877 174.469 173.732 -0.10 +0.00    -0.015 A 
ATOM     11  C   UNL     1     164.585 175.334 172.658 -0.13 -0.00    +0.013 A 
ATOM     12  C   UNL     1     164.673 174.904 171.331 -0.08 -0.02    +0.084 A 
ATOM     13  C   UNL     1     165.050 173.587 171.059 -0.06 -0.02    +0.273 A 
ATOM     14  C   UNL     1     165.293 172.692 172.108 -0.13 -0.01    +0.084 A 
ATOM     15  C   UNL     1     165.205 173.133 173.433 -0.10 -0.00    +0.013 A 
BRANCH  13  16
ATOM     16  N   UNL     1     165.235 173.153 169.670 -0.37 +0.00    +0.080 N 
ATOM     17  O   UNL     1     166.392 173.113 169.227 -0.61 -0.47    -0.576 OA
ATOM     18  O   UNL     1     164.224 172.839 169.025 -0.54 -0.01    +0.041 OA
ENDBRANCH  13  16
ENDBRANCH   4  10
BRANCH   1  19
ATOM     19  C   UNL     1     165.650 178.748 175.371 +0.05 -0.01    +0.214 C 
BRANCH  19  21
ATOM     20  N   UNL     1     166.558 179.459 173.103 +0.03 +0.04    -0.291 N 
ATOM     21  C   UNL     1     165.436 179.291 173.945 +0.04 -0.04    +0.234 C 
ATOM     22  O   UNL     1     164.284 179.558 173.597 -0.04 +0.08    -0.274 OA
BRANCH  20  24
ATOM     23  C   UNL     1     165.679 179.212 170.738 -0.16 -0.00    +0.031 C 
ATOM     24  C   UNL     1     166.441 180.113 171.729 -0.08 -0.00    +0.029 C 
ATOM     25  C   UNL     1     165.709 181.478 171.710 -0.06 -0.00    +0.031 C 
ATOM     26  C   UNL     1     167.847 180.399 171.139 -0.06 -0.00    +0.031 C 
ENDBRANCH  20  24
BRANCH  20  27
ATOM     27  C   UNL     1     167.902 179.021 173.553 +0.01 -0.02    +0.143 C 
BRANCH  27  28
ATOM     28  C   UNL     1     168.413 177.699 173.009 -0.03 +0.01    -0.030 A 
ATOM     29  C   UNL     1     167.545 176.901 172.240 -0.05 -0.00    +0.005 A 
ATOM     30  C   UNL     1     167.992 175.716 171.647 -0.13 -0.00    +0.000 A 
ATOM     31  C   UNL     1     169.306 175.297 171.833 -0.14 -0.00    +0.000 A 
ATOM     32  C   UNL     1     170.159 176.044 172.639 -0.15 -0.00    +0.000 A 
ATOM     33  C   UNL     1     169.715 177.232 173.226 -0.09 -0.00    +0.005 A 
ENDBRANCH  27  28
ENDBRANCH  20  27
ENDBRANCH  19  21
ENDBRANCH   1  19
TORSDOF 7
TER
ENDMDL
