MODEL        1
USER    Run = 1
USER
USER    Estimated Free Energy of Binding    =  -6.26 kcal/mol  [=(1)+(2)+(3)-(4)]
USER
USER    (1) Final Intermolecular Energy     =  -7.75 kcal/mol
USER        vdW + Hbond + desolv Energy     =  -7.48 kcal/mol
USER        Electrostatic Energy            =  -0.27 kcal/mol
USER        Moving Ligand-Fixed Receptor    =  -7.75 kcal/mol
USER        Moving Ligand-Moving Receptor   =  +0.00 kcal/mol
USER    (2) Final Total Internal Energy     =  -1.58 kcal/mol
USER    (3) Torsional Free Energy           =  +1.49 kcal/mol
USER    (4) Unbound System's Energy         =  -1.58 kcal/mol
USER
USER
REMARK  Name = Z14051756
REMARK  8 active torsions:
REMARK  status: ('A' for Active; 'I' for Inactive)
REMARK    1  A    between atoms: C_1  and  N_2
REMARK    2  A    between atoms: N_2  and  C_3
REMARK    3  A    between atoms: N_2  and  S_4
REMARK    4  A    between atoms: S_4  and  C_7
REMARK    5  A    between atoms: C_11  and  C_12
REMARK    6  A    between atoms: C_12  and  N_13
REMARK    7  A    between atoms: C_17  and  C_18
REMARK    8  A    between atoms: C_17  and  C_21
REMARK                            x       y       z     vdW  Elec       q    Type
REMARK                         _______ _______ _______ _____ _____    ______ ____
USER                              x       y       z     vdW  Elec       q    Type
USER                           _______ _______ _______ _____ _____    ______ ____
ROOT
ATOM      1  N   UNL     1     164.907 169.820 173.415 -0.23 +0.08    -0.220 N 
ATOM      2  C   UNL     1     164.769 168.796 174.311 -0.24 -0.09    +0.251 C 
ATOM      3  O   UNL     1     165.545 168.536 175.223 -0.32 +0.12    -0.272 OA
ATOM      4  C   UNL     1     163.453 168.034 174.001 -0.38 -0.03    +0.135 C 
ATOM      5  C   UNL     1     163.722 166.568 173.662 -0.41 -0.01    +0.047 C 
ATOM      6  N   UNL     1     163.069 168.738 172.794 -0.20 +0.06    -0.281 N 
ATOM      7  H   UNL     1     162.258 168.533 172.229 +0.10 -0.03    +0.152 HD
ATOM      8  C   UNL     1     163.927 169.765 172.476 -0.16 -0.08    +0.310 C 
ATOM      9  O   UNL     1     163.787 170.485 171.501 -0.19 +0.07    -0.252 OA
ENDROOT
BRANCH   4  10
ATOM     10  C   UNL     1     162.458 168.196 175.153 -0.31 +0.00    -0.015 A 
ATOM     11  C   UNL     1     162.362 167.190 176.137 -0.37 -0.00    +0.006 A 
ATOM     12  C   UNL     1     161.477 167.304 177.214 -0.44 -0.00    +0.000 A 
ATOM     13  C   UNL     1     160.672 168.431 177.332 -0.48 -0.00    +0.000 A 
ATOM     14  C   UNL     1     160.756 169.443 176.379 -0.47 -0.00    +0.000 A 
ATOM     15  C   UNL     1     161.640 169.330 175.300 -0.37 -0.00    +0.006 A 
ENDBRANCH   4  10
BRANCH   1  16
ATOM     16  C   UNL     1     165.878 170.886 173.530 +0.00 -0.09    +0.153 C 
BRANCH  16  19
ATOM     17  C   UNL     1     165.092 173.071 176.547 -0.16 -0.01    +0.106 A 
ATOM     18  C   UNL     1     165.009 172.465 175.289 -0.14 -0.01    +0.033 A 
ATOM     19  C   UNL     1     165.957 171.510 174.902 -0.13 +0.01    -0.028 A 
ATOM     20  C   UNL     1     166.945 171.131 175.823 -0.13 -0.00    +0.005 A 
ATOM     21  C   UNL     1     166.987 171.698 177.101 -0.31 -0.00    +0.002 A 
ATOM     22  C   UNL     1     166.058 172.668 177.471 -0.24 -0.01    +0.028 A 
BRANCH  17  23
ATOM     23  S   UNL     1     163.974 174.400 176.949 -0.36 +0.02    +0.060 S 
ATOM     24  O   UNL     1     162.625 173.912 176.731 -0.54 -0.13    -0.153 OA
ATOM     25  O   UNL     1     164.381 174.943 178.231 -0.66 -0.11    -0.153 OA
BRANCH  23  27
ATOM     26  C   UNL     1     165.737 175.958 175.622 -0.06 +0.01    +0.131 C 
ATOM     27  N   UNL     1     164.326 175.550 175.737 -0.17 -0.06    -0.183 NA
ATOM     28  C   UNL     1     163.648 175.367 174.438 -0.10 +0.02    +0.131 C 
ENDBRANCH  23  27
ENDBRANCH  17  23
ENDBRANCH  16  19
ENDBRANCH   1  16
TORSDOF 5
TER
ENDMDL
