MODEL        1
USER    Run = 1
USER
USER    Estimated Free Energy of Binding    =  -3.31 kcal/mol  [=(1)+(2)+(3)-(4)]
USER
USER    (1) Final Intermolecular Energy     =  -5.10 kcal/mol
USER        vdW + Hbond + desolv Energy     =  -5.30 kcal/mol
USER        Electrostatic Energy            =  +0.20 kcal/mol
USER        Moving Ligand-Fixed Receptor    =  -5.10 kcal/mol
USER        Moving Ligand-Moving Receptor   =  +0.00 kcal/mol
USER    (2) Final Total Internal Energy     =  -1.72 kcal/mol
USER    (3) Torsional Free Energy           =  +1.79 kcal/mol
USER    (4) Unbound System's Energy         =  -1.72 kcal/mol
USER
USER
REMARK  Name = Z14040053
REMARK  10 active torsions:
REMARK  status: ('A' for Active; 'I' for Inactive)
REMARK    1  A    between atoms: C_1  and  C_2
REMARK    2  A    between atoms: C_2  and  C_3
REMARK    3  A    between atoms: C_3  and  C_4
REMARK    4  A    between atoms: C_4  and  C_5
REMARK    5  A    between atoms: C_5  and  C_6
REMARK    6  A    between atoms: C_6  and  C_7
REMARK    7  A    between atoms: N_11  and  C_12
REMARK    8  A    between atoms: C_12  and  C_13
REMARK    9  A    between atoms: C_19  and  C_20
REMARK   10  A    between atoms: C_21  and  C_22
REMARK                            x       y       z     vdW  Elec       q    Type
REMARK                         _______ _______ _______ _____ _____    ______ ____
USER                              x       y       z     vdW  Elec       q    Type
USER                           _______ _______ _______ _____ _____    ______ ____
ROOT
ATOM      1  C   UNL     1     163.768 174.167 175.639 -0.16 +0.04    +0.113 C 
ATOM      2  C   UNL     1     164.988 173.407 175.066 -0.04 -0.03    +0.247 C 
ATOM      3  O   UNL     1     165.668 172.605 175.692 -0.14 +0.08    -0.273 OA
ATOM      4  N   UNL     1     165.090 173.685 173.728 -0.05 +0.04    -0.220 N 
ATOM      5  C   UNL     1     164.106 174.550 173.357 -0.03 -0.06    +0.310 C 
ATOM      6  O   UNL     1     163.806 174.892 172.225 -0.20 +0.09    -0.252 OA
ATOM      7  N   UNL     1     163.427 174.961 174.481 -0.09 -0.06    -0.285 N 
ATOM      8  H   UNL     1     162.583 175.513 174.379 +0.01 +0.05    +0.151 HD
ENDROOT
BRANCH   1   9
ATOM      9  C   UNL     1     164.103 175.006 176.880 -0.21 +0.02    +0.035 C 
BRANCH   9  11
ATOM     10  C   UNL     1     163.086 175.765 179.048 -0.26 +0.00    +0.004 C 
ATOM     11  C   UNL     1     163.430 174.560 178.181 -0.28 -0.00    -0.001 C 
ENDBRANCH   9  11
ENDBRANCH   1   9
BRANCH   1  12
ATOM     12  C   UNL     1     162.673 173.109 175.924 -0.26 +0.01    +0.035 C 
BRANCH  12  13
ATOM     13  C   UNL     1     162.752 171.848 175.053 -0.22 +0.00    -0.001 C 
ATOM     14  C   UNL     1     161.589 170.906 175.329 -0.45 +0.00    +0.004 C 
ENDBRANCH  12  13
ENDBRANCH   1  12
BRANCH   4  15
ATOM     15  C   UNL     1     165.903 172.943 172.786 +0.11 -0.03    +0.154 C 
BRANCH  15  16
ATOM     16  C   UNL     1     165.092 171.930 172.010 -0.29 +0.00    -0.012 C 
ATOM     17  C   UNL     1     164.683 170.641 172.600 -0.29 -0.01    +0.023 A 
ATOM     18  C   UNL     1     163.886 169.763 171.850 -0.17 -0.04    +0.142 A 
ATOM     19  C   UNL     1     163.457 168.503 172.326 -0.32 +0.00    -0.005 A 
ATOM     20  C   UNL     1     163.839 168.119 173.624 -0.39 +0.01    -0.044 A 
ATOM     21  C   UNL     1     164.619 168.996 174.391 -0.34 -0.00    +0.004 A 
ATOM     22  C   UNL     1     163.450 166.806 174.250 -0.31 -0.01    +0.044 C 
ATOM     23  C   UNL     1     162.630 167.589 171.460 -0.07 -0.02    +0.048 C 
ATOM     24  O   UNL     1     163.455 170.131 170.553 -0.05 +0.16    -0.422 OA
ATOM     25  C   UNL     1     163.764 171.355 169.993 +0.07 -0.10    +0.338 C 
ATOM     26  O   UNL     1     163.335 171.706 168.901 -0.35 +0.08    -0.245 OA
ATOM     27  C   UNL     1     165.039 170.232 173.887 -0.30 -0.01    +0.012 A 
ATOM     28  C   UNL     1     164.633 172.234 170.785 -0.24 -0.01    +0.098 C 
ENDBRANCH  15  16
ENDBRANCH   4  15
TORSDOF 6
TER
ENDMDL
