MODEL        1
USER    Run = 1
USER
USER    Estimated Free Energy of Binding    =  -5.23 kcal/mol  [=(1)+(2)+(3)-(4)]
USER
USER    (1) Final Intermolecular Energy     =  -6.12 kcal/mol
USER        vdW + Hbond + desolv Energy     =  -6.23 kcal/mol
USER        Electrostatic Energy            =  +0.11 kcal/mol
USER        Moving Ligand-Fixed Receptor    =  -6.12 kcal/mol
USER        Moving Ligand-Moving Receptor   =  +0.00 kcal/mol
USER    (2) Final Total Internal Energy     =  -1.10 kcal/mol
USER    (3) Torsional Free Energy           =  +0.89 kcal/mol
USER    (4) Unbound System's Energy         =  -1.10 kcal/mol
USER
USER
REMARK  Name = Z14059893
REMARK  5 active torsions:
REMARK  status: ('A' for Active; 'I' for Inactive)
REMARK    1  A    between atoms: C_1  and  C_2
REMARK    2  A    between atoms: C_5  and  C_8
REMARK    3  A    between atoms: C_8  and  C_9
REMARK    4  A    between atoms: N_13  and  C_14
REMARK    5  A    between atoms: C_14  and  C_15
REMARK                            x       y       z     vdW  Elec       q    Type
REMARK                         _______ _______ _______ _____ _____    ______ ____
USER                              x       y       z     vdW  Elec       q    Type
USER                           _______ _______ _______ _____ _____    ______ ____
ROOT
ATOM      1  C   UNL     1     163.437 168.239 173.624 -0.37 -0.03    +0.135 C 
ATOM      2  C   UNL     1     164.550 169.306 173.453 -0.23 -0.08    +0.251 C 
ATOM      3  O   UNL     1     165.454 169.519 174.254 -0.29 +0.14    -0.272 OA
ATOM      4  N   UNL     1     164.399 169.918 172.244 -0.22 +0.06    -0.217 N 
ATOM      5  C   UNL     1     163.380 169.352 171.550 -0.11 -0.09    +0.310 C 
ATOM      6  O   UNL     1     163.038 169.596 170.405 -0.29 +0.11    -0.252 OA
ATOM      7  N   UNL     1     162.796 168.386 172.331 -0.20 +0.07    -0.281 N 
ATOM      8  H   UNL     1     161.995 167.864 172.005 +0.06 -0.05    +0.152 HD
ATOM      9  C   UNL     1     164.108 166.867 173.730 -0.43 -0.01    +0.047 C 
ENDROOT
BRANCH   1  14
ATOM     10  C   UNL     1     159.356 168.992 177.759 -0.41 -0.01    +0.044 C 
ATOM     11  C   UNL     1     160.465 168.859 176.758 -0.45 +0.01    -0.050 A 
ATOM     12  C   UNL     1     161.297 167.738 176.772 -0.43 -0.00    +0.003 A 
ATOM     13  C   UNL     1     162.271 167.564 175.781 -0.37 -0.00    +0.006 A 
ATOM     14  C   UNL     1     162.437 168.503 174.744 -0.29 +0.00    -0.015 A 
ATOM     15  C   UNL     1     161.628 169.651 174.778 -0.37 -0.00    +0.006 A 
ATOM     16  C   UNL     1     160.656 169.826 175.768 -0.47 -0.00    +0.003 A 
ENDBRANCH   1  14
BRANCH   4  17
ATOM     17  C   UNL     1     165.282 170.931 171.716 -0.21 -0.03    +0.180 C 
BRANCH  17  18
ATOM     18  C   UNL     1     165.106 172.229 172.454 -0.14 -0.02    +0.097 A 
ATOM     19  S   UNL     1     164.933 173.680 171.546 -0.31 +0.01    -0.070 S 
ATOM     20  C   UNL     1     164.617 174.550 172.993 -0.12 -0.01    +0.039 A 
ATOM     21  C   UNL     1     164.771 173.693 174.083 -0.08 -0.01    +0.079 A 
ATOM     22  C   UNL     1     164.575 174.213 175.379 -0.14 +0.00    +0.029 A 
ATOM     23  C   UNL     1     164.187 175.549 175.543 -0.12 +0.00    +0.002 A 
ATOM     24  C   UNL     1     164.016 176.376 174.438 -0.10 -0.00    +0.001 A 
ATOM     25  C   UNL     1     164.248 175.897 173.146 -0.10 -0.01    +0.017 A 
ATOM     26  N   UNL     1     165.080 172.376 173.763 -0.07 +0.06    -0.242 NA
ENDBRANCH  17  18
ENDBRANCH   4  17
TORSDOF 3
TER
ENDMDL
