MODEL        1
USER    Run = 1
USER
USER    Estimated Free Energy of Binding    =  -4.88 kcal/mol  [=(1)+(2)+(3)-(4)]
USER
USER    (1) Final Intermolecular Energy     =  -5.78 kcal/mol
USER        vdW + Hbond + desolv Energy     =  -5.78 kcal/mol
USER        Electrostatic Energy            =  +0.01 kcal/mol
USER        Moving Ligand-Fixed Receptor    =  -5.78 kcal/mol
USER        Moving Ligand-Moving Receptor   =  +0.00 kcal/mol
USER    (2) Final Total Internal Energy     =  -1.05 kcal/mol
USER    (3) Torsional Free Energy           =  +0.89 kcal/mol
USER    (4) Unbound System's Energy         =  -1.05 kcal/mol
USER
USER
REMARK  Name = Z14049915
REMARK  4 active torsions:
REMARK  status: ('A' for Active; 'I' for Inactive)
REMARK    1  A    between atoms: C_1  and  C_2
REMARK    2  A    between atoms: C_2  and  C_18
REMARK    3  A    between atoms: N_6  and  C_7
REMARK    4  A    between atoms: C_7  and  C_8
REMARK                            x       y       z     vdW  Elec       q    Type
REMARK                         _______ _______ _______ _____ _____    ______ ____
USER                              x       y       z     vdW  Elec       q    Type
USER                           _______ _______ _______ _____ _____    ______ ____
ROOT
ATOM      1  C   UNL     1     163.755 166.733 173.848 -0.42 -0.01    +0.047 C 
ATOM      2  C   UNL     1     163.639 168.150 174.417 -0.39 -0.03    +0.135 C 
ATOM      3  C   UNL     1     163.691 169.174 173.256 -0.25 -0.06    +0.251 C 
ATOM      4  O   UNL     1     162.810 169.346 172.424 -0.25 +0.06    -0.272 OA
ATOM      5  N   UNL     1     164.883 169.850 173.314 -0.23 +0.08    -0.220 N 
ATOM      6  C   UNL     1     165.545 169.522 174.452 -0.01 -0.17    +0.310 C 
ATOM      7  O   UNL     1     166.548 170.050 174.907 -0.26 +0.21    -0.252 OA
ATOM      8  N   UNL     1     164.877 168.504 175.082 -0.06 +0.10    -0.281 N 
ATOM      9  H   UNL     1     165.198 168.129 175.962 +0.09 -0.06    +0.152 HD
ENDROOT
BRANCH   2  10
ATOM     10  C   UNL     1     162.401 168.320 175.299 -0.31 +0.00    -0.015 A 
ATOM     11  C   UNL     1     162.101 167.360 176.287 -0.39 -0.00    +0.006 A 
ATOM     12  C   UNL     1     160.994 167.497 177.127 -0.45 -0.00    +0.000 A 
ATOM     13  C   UNL     1     160.156 168.600 177.000 -0.51 -0.00    +0.000 A 
ATOM     14  C   UNL     1     160.424 169.556 176.026 -0.46 -0.00    +0.000 A 
ATOM     15  C   UNL     1     161.532 169.421 175.182 -0.38 -0.00    +0.006 A 
ENDBRANCH   2  10
BRANCH   5  16
ATOM     16  C   UNL     1     165.214 170.981 172.479 -0.24 -0.05    +0.154 C 
BRANCH  16  17
ATOM     17  C   UNL     1     164.860 172.339 173.055 -0.16 +0.00    -0.011 A 
ATOM     18  C   UNL     1     164.876 173.519 172.289 -0.12 -0.01    +0.048 A 
ATOM     19 CL   UNL     1     165.540 173.574 170.697 -0.42 -0.01    -0.083 Cl
ATOM     20  C   UNL     1     164.330 174.705 172.789 -0.12 -0.01    +0.058 A 
ATOM     21  C   UNL     1     163.803 174.729 174.071 -0.10 -0.00    +0.125 A 
ATOM     22  F   UNL     1     163.231 175.851 174.529 -0.02 -0.05    -0.205 F 
ATOM     23  C   UNL     1     163.852 173.605 174.882 -0.15 +0.00    +0.039 A 
ATOM     24  C   UNL     1     164.384 172.415 174.380 -0.17 -0.00    +0.009 A 
ENDBRANCH  16  17
ENDBRANCH   5  16
TORSDOF 3
TER
ENDMDL
