MODEL        1
USER    Run = 1
USER
USER    Estimated Free Energy of Binding    =  -5.02 kcal/mol  [=(1)+(2)+(3)-(4)]
USER
USER    (1) Final Intermolecular Energy     =  -5.92 kcal/mol
USER        vdW + Hbond + desolv Energy     =  -5.97 kcal/mol
USER        Electrostatic Energy            =  +0.06 kcal/mol
USER        Moving Ligand-Fixed Receptor    =  -5.92 kcal/mol
USER        Moving Ligand-Moving Receptor   =  +0.00 kcal/mol
USER    (2) Final Total Internal Energy     =  -1.18 kcal/mol
USER    (3) Torsional Free Energy           =  +0.89 kcal/mol
USER    (4) Unbound System's Energy         =  -1.18 kcal/mol
USER
USER
REMARK  Name = Z14075476
REMARK  5 active torsions:
REMARK  status: ('A' for Active; 'I' for Inactive)
REMARK    1  A    between atoms: C_1  and  N_2
REMARK    2  A    between atoms: C_3  and  C_5
REMARK    3  A    between atoms: C_5  and  N_6
REMARK    4  A    between atoms: C_10  and  C_11
REMARK    5  A    between atoms: C_10  and  C_14
REMARK                            x       y       z     vdW  Elec       q    Type
REMARK                         _______ _______ _______ _____ _____    ______ ____
USER                              x       y       z     vdW  Elec       q    Type
USER                           _______ _______ _______ _____ _____    ______ ____
ROOT
ATOM      1  N   UNL     1     164.362 169.980 171.817 -0.21 +0.06    -0.215 N 
ATOM      2  C   UNL     1     164.335 169.543 173.116 -0.22 -0.07    +0.251 C 
ATOM      3  O   UNL     1     165.125 169.889 173.985 -0.26 +0.12    -0.272 OA
ATOM      4  C   UNL     1     163.165 168.536 173.292 -0.34 -0.03    +0.136 C 
ATOM      5  C   UNL     1     163.676 167.097 173.456 -0.42 -0.01    +0.047 C 
ATOM      6  N   UNL     1     162.623 168.613 171.938 -0.23 +0.08    -0.281 N 
ATOM      7  H   UNL     1     161.850 168.060 171.594 -0.08 -0.07    +0.152 HD
ATOM      8  C   UNL     1     163.361 169.413 171.104 -0.01 -0.11    +0.310 C 
ATOM      9  O   UNL     1     163.139 169.564 169.913 -0.16 +0.12    -0.252 OA
ENDROOT
BRANCH   4  10
ATOM     10  C   UNL     1     162.143 168.976 174.365 -0.25 +0.00    -0.008 A 
ATOM     11  C   UNL     1     161.880 168.218 175.559 -0.28 +0.00    -0.012 A 
ATOM     12  C   UNL     1     160.788 168.594 176.387 -0.42 +0.00    -0.018 A 
ATOM     13  C   UNL     1     160.427 167.820 177.505 -0.40 -0.00    +0.008 A 
ATOM     14  C   UNL     1     161.146 166.681 177.852 -0.25 -0.00    +0.001 A 
ATOM     15  C   UNL     1     162.265 166.336 177.116 -0.19 -0.00    +0.001 A 
ATOM     16  C   UNL     1     160.050 169.747 176.104 -0.42 -0.00    +0.008 A 
ATOM     17  C   UNL     1     160.361 170.535 175.007 -0.45 +0.00    +0.001 A 
ATOM     18  C   UNL     1     162.632 167.101 176.005 -0.37 -0.00    +0.009 A 
ATOM     19  C   UNL     1     161.385 170.150 174.145 -0.15 -0.00    +0.007 A 
ENDBRANCH   4  10
BRANCH   1  20
ATOM     20  C   UNL     1     165.238 171.017 171.316 -0.13 -0.03    +0.213 C 
BRANCH  20  24
ATOM     21  C   UNL     1     163.129 173.069 168.901 -0.35 -0.05    +0.128 C 
ATOM     22  N   UNL     1     164.027 172.088 169.461 -0.17 +0.08    -0.317 N 
ATOM     23  H   UNL     1     164.093 171.175 169.013 +0.03 -0.05    +0.148 HD
ATOM     24  C   UNL     1     164.504 172.232 170.748 -0.14 -0.03    +0.231 C 
ATOM     25  O   UNL     1     164.245 173.214 171.441 -0.10 +0.05    -0.274 OA
ENDBRANCH  20  24
ENDBRANCH   1  20
TORSDOF 3
TER
ENDMDL
