MODEL        1
USER    Run = 1
USER
USER    Estimated Free Energy of Binding    =  -5.95 kcal/mol  [=(1)+(2)+(3)-(4)]
USER
USER    (1) Final Intermolecular Energy     =  -7.14 kcal/mol
USER        vdW + Hbond + desolv Energy     =  -6.81 kcal/mol
USER        Electrostatic Energy            =  -0.34 kcal/mol
USER        Moving Ligand-Fixed Receptor    =  -7.14 kcal/mol
USER        Moving Ligand-Moving Receptor   =  +0.00 kcal/mol
USER    (2) Final Total Internal Energy     =  -1.67 kcal/mol
USER    (3) Torsional Free Energy           =  +1.19 kcal/mol
USER    (4) Unbound System's Energy         =  -1.67 kcal/mol
USER
USER
REMARK  Name = Z14185879
REMARK  5 active torsions:
REMARK  status: ('A' for Active; 'I' for Inactive)
REMARK    1  A    between atoms: C_1  and  C_2
REMARK    2  A    between atoms: C_2  and  N_3
REMARK    3  A    between atoms: C_2  and  C_22
REMARK    4  A    between atoms: C_4  and  C_6
REMARK    5  A    between atoms: C_6  and  N_7
REMARK                            x       y       z     vdW  Elec       q    Type
REMARK                         _______ _______ _______ _____ _____    ______ ____
USER                              x       y       z     vdW  Elec       q    Type
USER                           _______ _______ _______ _____ _____    ______ ____
ROOT
ATOM      1  C   UNL     1     165.507 170.538 171.606 -0.04 -0.04    +0.213 C 
ENDROOT
BRANCH   1   2
ATOM      2  N   UNL     1     164.354 169.939 172.235 -0.22 +0.06    -0.215 N 
ATOM      3  C   UNL     1     164.128 169.841 173.587 -0.21 -0.07    +0.252 C 
ATOM      4  O   UNL     1     164.785 170.375 174.470 -0.18 +0.10    -0.272 OA
ATOM      5  C   UNL     1     162.987 168.837 173.772 -0.33 -0.02    +0.139 C 
ATOM      6  C   UNL     1     161.947 169.092 174.815 -0.30 +0.00    -0.012 A 
ATOM      7  C   UNL     1     161.950 168.076 175.778 -0.30 +0.00    -0.042 A 
ATOM      8  C   UNL     1     161.049 168.073 176.833 -0.45 -0.00    +0.004 A 
ATOM      9  C   UNL     1     160.113 169.101 176.914 -0.49 -0.00    +0.000 A 
ATOM     10  C   UNL     1     160.093 170.116 175.947 -0.37 -0.00    +0.000 A 
ATOM     11  C   UNL     1     163.007 167.055 175.520 -0.29 -0.01    +0.038 C 
ATOM     12  C   UNL     1     161.013 170.118 174.892 -0.44 -0.00    +0.006 A 
ATOM     13  C   UNL     1     163.604 167.476 174.171 -0.47 -0.01    +0.045 C 
ATOM     14  N   UNL     1     162.457 168.814 172.430 -0.19 +0.06    -0.281 N 
ATOM     15  H   UNL     1     161.673 168.249 172.126 +0.07 -0.03    +0.152 HD
ATOM     16  C   UNL     1     163.339 169.363 171.536 -0.09 -0.10    +0.310 C 
ATOM     17  O   UNL     1     163.218 169.329 170.320 -0.22 +0.12    -0.252 OA
ENDBRANCH   1   2
BRANCH   1  20
ATOM     18  N   UNL     1     164.961 172.567 172.890 -0.03 +0.06    -0.307 N 
ATOM     19  H   UNL     1     164.636 171.922 173.605 +0.10 -0.04    +0.149 HD
ATOM     20  C   UNL     1     165.329 172.059 171.655 -0.14 -0.02    +0.231 C 
ATOM     21  O   UNL     1     165.427 172.761 170.650 -0.27 -0.03    -0.274 OA
BRANCH  18  23
ATOM     22  C   UNL     1     166.000 174.779 172.608 -0.09 -0.01    +0.033 C 
ATOM     23  C   UNL     1     164.779 173.997 173.100 -0.11 -0.02    +0.100 C 
BRANCH  23  24
ATOM     24  C   UNL     1     164.478 174.347 174.551 -0.12 +0.00    -0.024 A 
ATOM     25  C   UNL     1     163.982 175.630 174.854 -0.09 +0.01    +0.055 A 
ATOM     26  C   UNL     1     163.839 175.987 176.179 +0.00 +0.11    +0.167 A 
ATOM     27  C   UNL     1     164.150 175.123 177.199 -0.09 +0.08    +0.166 A 
ATOM     28  O   UNL     1     163.972 175.683 178.426 -0.58 -0.31    -0.453 OA
ATOM     29  C   UNL     1     163.538 177.010 178.058 +0.06 +0.22    +0.466 C 
ATOM     30  C   UNL     1     164.606 173.848 176.951 -0.23 +0.01    +0.050 A 
ATOM     31  O   UNL     1     163.422 177.200 176.633 -0.53 -0.48    -0.453 OA
ATOM     32  C   UNL     1     164.770 173.458 175.613 -0.17 -0.00    +0.009 A 
ENDBRANCH  23  24
ENDBRANCH  18  23
ENDBRANCH   1  20
TORSDOF 4
TER
ENDMDL
