MODEL        1
USER    Run = 1
USER
USER    Estimated Free Energy of Binding    =  -5.02 kcal/mol  [=(1)+(2)+(3)-(4)]
USER
USER    (1) Final Intermolecular Energy     =  -5.91 kcal/mol
USER        vdW + Hbond + desolv Energy     =  -5.87 kcal/mol
USER        Electrostatic Energy            =  -0.04 kcal/mol
USER        Moving Ligand-Fixed Receptor    =  -5.91 kcal/mol
USER        Moving Ligand-Moving Receptor   =  +0.00 kcal/mol
USER    (2) Final Total Internal Energy     =  -1.78 kcal/mol
USER    (3) Torsional Free Energy           =  +0.89 kcal/mol
USER    (4) Unbound System's Energy         =  -1.78 kcal/mol
USER
USER
REMARK  Name = Z14183778
REMARK  3 active torsions:
REMARK  status: ('A' for Active; 'I' for Inactive)
REMARK    1  A    between atoms: C_7  and  N_8
REMARK    2  A    between atoms: C_9  and  C_11
REMARK    3  A    between atoms: C_11  and  N_12
REMARK                            x       y       z     vdW  Elec       q    Type
REMARK                         _______ _______ _______ _____ _____    ______ ____
USER                              x       y       z     vdW  Elec       q    Type
USER                           _______ _______ _______ _____ _____    ______ ____
ROOT
ATOM      1  N   UNL     1     164.334 169.944 172.250 -0.22 +0.06    -0.215 N 
ATOM      2  C   UNL     1     164.083 169.875 173.598 -0.21 -0.07    +0.252 C 
ATOM      3  O   UNL     1     164.744 170.405 174.479 -0.18 +0.10    -0.272 OA
ATOM      4  C   UNL     1     162.953 168.860 173.786 -0.33 -0.02    +0.139 C 
ATOM      5  C   UNL     1     161.904 169.108 174.818 -0.30 +0.00    -0.012 A 
ATOM      6  C   UNL     1     161.926 168.110 175.797 -0.31 +0.00    -0.042 A 
ATOM      7  C   UNL     1     161.017 168.102 176.845 -0.46 -0.00    +0.004 A 
ATOM      8  C   UNL     1     160.054 169.107 176.897 -0.49 -0.00    +0.000 A 
ATOM      9  C   UNL     1     160.018 170.106 175.915 -0.36 -0.00    +0.000 A 
ATOM     10  C   UNL     1     163.013 167.113 175.569 -0.33 -0.01    +0.038 C 
ATOM     11  C   UNL     1     160.949 170.114 174.868 -0.43 -0.00    +0.006 A 
ATOM     12  C   UNL     1     163.595 167.515 174.208 -0.47 -0.01    +0.045 C 
ATOM     13  N   UNL     1     162.442 168.808 172.440 -0.19 +0.06    -0.281 N 
ATOM     14  H   UNL     1     161.630 168.287 172.140 +0.08 -0.03    +0.152 HD
ATOM     15  C   UNL     1     163.326 169.364 171.550 -0.09 -0.09    +0.310 C 
ATOM     16  O   UNL     1     163.204 169.359 170.337 -0.23 +0.11    -0.252 OA
ENDROOT
BRANCH   1  17
ATOM     17  C   UNL     1     165.533 170.488 171.659 -0.02 -0.04    +0.214 C 
BRANCH  17  20
ATOM     18  N   UNL     1     165.169 172.661 172.724 -0.05 +0.06    -0.283 N 
ATOM     19  H   UNL     1     164.787 172.109 173.493 +0.10 -0.04    +0.155 HD
ATOM     20  C   UNL     1     165.499 172.002 171.551 -0.14 -0.01    +0.235 C 
ATOM     21  O   UNL     1     165.620 172.534 170.449 -0.38 -0.07    -0.274 OA
BRANCH  18  24
ATOM     22 CL   UNL     1     163.427 173.616 175.001 -0.29 -0.02    -0.082 Cl
ATOM     23  C   UNL     1     164.295 174.623 173.894 -0.11 -0.01    +0.062 A 
ATOM     24  C   UNL     1     165.077 174.070 172.866 -0.09 -0.01    +0.052 A 
ATOM     25  C   UNL     1     165.756 174.942 172.008 -0.12 -0.00    +0.025 A 
ATOM     26  C   UNL     1     165.629 176.327 172.143 -0.09 -0.00    +0.002 A 
ATOM     27  C   UNL     1     164.827 176.862 173.144 -0.06 -0.00    +0.002 A 
ATOM     28  C   UNL     1     164.162 176.011 174.026 -0.12 -0.00    +0.022 A 
ENDBRANCH  18  24
ENDBRANCH  17  20
ENDBRANCH   1  17
TORSDOF 3
TER
ENDMDL
