MODEL        1
USER    Run = 1
USER
USER    Estimated Free Energy of Binding    =  -5.45 kcal/mol  [=(1)+(2)+(3)-(4)]
USER
USER    (1) Final Intermolecular Energy     =  -6.05 kcal/mol
USER        vdW + Hbond + desolv Energy     =  -6.15 kcal/mol
USER        Electrostatic Energy            =  +0.10 kcal/mol
USER        Moving Ligand-Fixed Receptor    =  -6.05 kcal/mol
USER        Moving Ligand-Moving Receptor   =  +0.00 kcal/mol
USER    (2) Final Total Internal Energy     =  -0.56 kcal/mol
USER    (3) Torsional Free Energy           =  +0.60 kcal/mol
USER    (4) Unbound System's Energy         =  -0.56 kcal/mol
USER
USER
REMARK  Name = Z14183358
REMARK  2 active torsions:
REMARK  status: ('A' for Active; 'I' for Inactive)
REMARK    1  A    between atoms: C_6  and  C_7
REMARK    2  A    between atoms: C_7  and  N_8
REMARK                            x       y       z     vdW  Elec       q    Type
REMARK                         _______ _______ _______ _____ _____    ______ ____
USER                              x       y       z     vdW  Elec       q    Type
USER                           _______ _______ _______ _____ _____    ______ ____
ROOT
ATOM      1  N   UNL     1     164.321 169.914 172.169 -0.22 +0.06    -0.220 N 
ATOM      2  C   UNL     1     164.205 169.738 173.527 -0.22 -0.07    +0.251 C 
ATOM      3  O   UNL     1     164.979 170.162 174.374 -0.22 +0.11    -0.272 OA
ATOM      4  C   UNL     1     163.046 168.761 173.760 -0.34 -0.03    +0.138 C 
ATOM      5  C   UNL     1     162.097 169.014 174.885 -0.32 +0.00    -0.012 A 
ATOM      6  C   UNL     1     162.060 167.927 175.763 -0.31 +0.00    -0.042 A 
ATOM      7  C   UNL     1     161.210 167.907 176.861 -0.45 -0.00    +0.004 A 
ATOM      8  C   UNL     1     160.375 169.000 177.072 -0.50 -0.00    +0.000 A 
ATOM      9  C   UNL     1     160.401 170.095 176.195 -0.37 -0.00    +0.000 A 
ATOM     10  C   UNL     1     162.999 166.839 175.361 -0.16 -0.01    +0.038 C 
ATOM     11  C   UNL     1     161.268 170.105 175.095 -0.44 -0.00    +0.006 A 
ATOM     12  C   UNL     1     163.634 167.360 174.065 -0.46 -0.01    +0.045 C 
ATOM     13  N   UNL     1     162.424 168.794 172.463 -0.19 +0.06    -0.281 N 
ATOM     14  H   UNL     1     161.626 168.238 172.188 +0.08 -0.02    +0.152 HD
ATOM     15  C   UNL     1     163.274 169.331 171.523 -0.08 -0.10    +0.310 C 
ATOM     16  O   UNL     1     163.095 169.243 170.319 -0.28 +0.12    -0.252 OA
ENDROOT
BRANCH   1  17
ATOM     17  C   UNL     1     165.468 170.492 171.506 -0.05 -0.03    +0.153 C 
BRANCH  17  21
ATOM     18 CL   UNL     1     164.551 175.421 172.967 -0.24 +0.02    -0.084 Cl
ATOM     19  C   UNL     1     164.830 174.237 171.749 -0.16 -0.01    +0.041 A 
ATOM     20  C   UNL     1     165.042 172.908 172.113 -0.15 -0.00    +0.025 A 
ATOM     21  C   UNL     1     165.261 171.936 171.127 -0.24 +0.00    -0.028 A 
ATOM     22  C   UNL     1     165.269 172.324 169.778 -0.34 +0.00    +0.005 A 
ATOM     23  C   UNL     1     165.061 173.657 169.421 -0.34 -0.00    +0.002 A 
ATOM     24  C   UNL     1     164.836 174.615 170.408 -0.17 -0.00    +0.020 A 
ENDBRANCH  17  21
ENDBRANCH   1  17
TORSDOF 2
TER
ENDMDL
