MODEL        1
USER    Run = 1
USER
USER    Estimated Free Energy of Binding    =  -5.50 kcal/mol  [=(1)+(2)+(3)-(4)]
USER
USER    (1) Final Intermolecular Energy     =  -6.10 kcal/mol
USER        vdW + Hbond + desolv Energy     =  -6.18 kcal/mol
USER        Electrostatic Energy            =  +0.08 kcal/mol
USER        Moving Ligand-Fixed Receptor    =  -6.10 kcal/mol
USER        Moving Ligand-Moving Receptor   =  +0.00 kcal/mol
USER    (2) Final Total Internal Energy     =  -0.46 kcal/mol
USER    (3) Torsional Free Energy           =  +0.60 kcal/mol
USER    (4) Unbound System's Energy         =  -0.46 kcal/mol
USER
USER
REMARK  Name = Z14183259
REMARK  2 active torsions:
REMARK  status: ('A' for Active; 'I' for Inactive)
REMARK    1  A    between atoms: C_5  and  C_6
REMARK    2  A    between atoms: C_6  and  N_7
REMARK                            x       y       z     vdW  Elec       q    Type
REMARK                         _______ _______ _______ _____ _____    ______ ____
USER                              x       y       z     vdW  Elec       q    Type
USER                           _______ _______ _______ _____ _____    ______ ____
ROOT
ATOM      1  N   UNL     1     164.091 170.114 172.142 -0.21 +0.06    -0.220 N 
ATOM      2  C   UNL     1     163.955 170.002 173.510 -0.20 -0.07    +0.251 C 
ATOM      3  O   UNL     1     164.689 170.501 174.354 -0.18 +0.10    -0.272 OA
ATOM      4  C   UNL     1     162.885 168.934 173.769 -0.33 -0.02    +0.138 C 
ATOM      5  C   UNL     1     161.863 169.145 174.840 -0.30 +0.00    -0.012 A 
ATOM      6  C   UNL     1     161.990 168.181 175.847 -0.31 +0.00    -0.042 A 
ATOM      7  C   UNL     1     161.111 168.137 176.919 -0.46 -0.00    +0.004 A 
ATOM      8  C   UNL     1     160.070 169.063 176.965 -0.49 -0.00    +0.000 A 
ATOM      9  C   UNL     1     159.928 170.021 175.952 -0.34 -0.00    +0.000 A 
ATOM     10  C   UNL     1     163.144 167.265 175.608 -0.29 -0.01    +0.038 C 
ATOM     11  C   UNL     1     160.827 170.069 174.882 -0.42 +0.00    +0.006 A 
ATOM     12  C   UNL     1     163.613 167.635 174.195 -0.47 -0.01    +0.045 C 
ATOM     13  N   UNL     1     162.306 168.826 172.458 -0.17 +0.05    -0.281 N 
ATOM     14  H   UNL     1     161.598 168.153 172.197 +0.10 -0.02    +0.152 HD
ATOM     15  C   UNL     1     163.128 169.384 171.510 +0.02 -0.10    +0.310 C 
ATOM     16  O   UNL     1     163.012 169.177 170.314 -0.33 +0.12    -0.252 OA
ENDROOT
BRANCH   1  17
ATOM     17  C   UNL     1     165.325 170.480 171.487 -0.07 -0.03    +0.153 C 
BRANCH  17  22
ATOM     18 CL   UNL     1     166.468 176.193 169.974 -0.31 +0.00    -0.084 Cl
ATOM     19  C   UNL     1     166.065 174.581 170.422 -0.24 +0.00    +0.041 A 
ATOM     20  C   UNL     1     165.566 173.699 169.466 -0.35 +0.00    +0.020 A 
ATOM     21  C   UNL     1     165.271 172.380 169.822 -0.34 +0.00    +0.006 A 
ATOM     22  C   UNL     1     165.487 171.935 171.135 -0.22 -0.00    -0.029 A 
ATOM     23  C   UNL     1     165.960 172.843 172.093 -0.15 -0.00    +0.006 A 
ATOM     24  C   UNL     1     166.251 174.163 171.737 -0.13 -0.00    +0.020 A 
ENDBRANCH  17  22
ENDBRANCH   1  17
TORSDOF 2
TER
ENDMDL
