MODEL        1
USER    Run = 1
USER
USER    Estimated Free Energy of Binding    =  -3.96 kcal/mol  [=(1)+(2)+(3)-(4)]
USER
USER    (1) Final Intermolecular Energy     =  -5.75 kcal/mol
USER        vdW + Hbond + desolv Energy     =  -5.73 kcal/mol
USER        Electrostatic Energy            =  -0.02 kcal/mol
USER        Moving Ligand-Fixed Receptor    =  -5.75 kcal/mol
USER        Moving Ligand-Moving Receptor   =  +0.00 kcal/mol
USER    (2) Final Total Internal Energy     =  -1.01 kcal/mol
USER    (3) Torsional Free Energy           =  +1.79 kcal/mol
USER    (4) Unbound System's Energy         =  -1.01 kcal/mol
USER
USER
REMARK  Name = Z14110796
REMARK  12 active torsions:
REMARK  status: ('A' for Active; 'I' for Inactive)
REMARK    1  A    between atoms: C_1  and  C_2
REMARK    2  A    between atoms: C_2  and  C_3
REMARK    3  A    between atoms: C_2  and  C_4
REMARK    4  A    between atoms: C_4  and  C_5
REMARK    5  A    between atoms: C_5  and  C_6
REMARK    6  A    between atoms: N_10  and  C_11
REMARK    7  A    between atoms: C_11  and  C_12
REMARK    8  A    between atoms: C_12  and  O_14
REMARK    9  A    between atoms: O_14  and  C_15
REMARK   10  A    between atoms: C_15  and  C_16
REMARK   11  A    between atoms: C_15  and  C_17
REMARK   12  A    between atoms: C_15  and  C_18
REMARK                            x       y       z     vdW  Elec       q    Type
REMARK                         _______ _______ _______ _____ _____    ______ ____
USER                              x       y       z     vdW  Elec       q    Type
USER                           _______ _______ _______ _____ _____    ______ ____
ROOT
ATOM      1  C   UNL     1     162.548 169.353 174.497 -0.33 -0.01    +0.110 C 
ATOM      2  C   UNL     1     161.360 169.617 175.430 -0.28 -0.01    +0.247 C 
ATOM      3  O   UNL     1     160.579 170.553 175.343 -0.38 -0.00    -0.273 OA
ATOM      4  N   UNL     1     161.308 168.604 176.344 -0.29 +0.02    -0.213 N 
ATOM      5  C   UNL     1     162.299 167.702 176.133 -0.18 -0.03    +0.310 C 
ATOM      6  O   UNL     1     162.482 166.651 176.722 -0.34 +0.04    -0.252 OA
ATOM      7  N   UNL     1     163.100 168.167 175.114 -0.19 +0.05    -0.285 N 
ATOM      8  H   UNL     1     163.849 167.598 174.745 +0.10 -0.04    +0.151 HD
ATOM      9  C   UNL     1     161.968 169.008 173.123 +0.01 -0.00    +0.041 C 
ENDROOT
BRANCH   1  10
ATOM     10  C   UNL     1     163.541 170.527 174.437 -0.22 -0.01    +0.038 C 
BRANCH  10  12
ATOM     11  C   UNL     1     165.170 170.762 172.530 -0.35 -0.00    +0.007 C 
ATOM     12  C   UNL     1     164.985 170.229 173.956 -0.36 +0.01    -0.015 C 
ATOM     13  C   UNL     1     166.090 170.829 174.828 -0.32 -0.00    +0.007 C 
ENDBRANCH  10  12
ENDBRANCH   1  10
BRANCH   4  14
ATOM     14  C   UNL     1     160.278 168.489 177.347 -0.36 -0.06    +0.238 C 
BRANCH  14  15
ATOM     15  C   UNL     1     158.887 168.393 176.746 -0.21 -0.11    +0.326 C 
ATOM     16  O   UNL     1     158.163 169.374 176.626 -0.33 +0.13    -0.249 OA
BRANCH  15  17
ATOM     17  O   UNL     1     158.561 167.123 176.377 -0.09 +0.15    -0.458 OA
BRANCH  17  18
ATOM     18  C   UNL     1     157.523 166.394 177.079 -0.41 -0.05    +0.105 C 
ATOM     19  C   UNL     1     158.128 165.242 177.885 -0.32 -0.02    +0.055 C 
ATOM     20  C   UNL     1     156.630 165.798 175.978 -0.37 -0.03    +0.055 C 
ATOM     21  C   UNL     1     156.668 167.328 177.943 -0.49 -0.03    +0.055 C 
ENDBRANCH  17  18
ENDBRANCH  15  17
ENDBRANCH  14  15
ENDBRANCH   4  14
TORSDOF 6
TER
ENDMDL
