MODEL        1
USER    Run = 1
USER
USER    Estimated Free Energy of Binding    =  -4.41 kcal/mol  [=(1)+(2)+(3)-(4)]
USER
USER    (1) Final Intermolecular Energy     =  -5.60 kcal/mol
USER        vdW + Hbond + desolv Energy     =  -5.47 kcal/mol
USER        Electrostatic Energy            =  -0.13 kcal/mol
USER        Moving Ligand-Fixed Receptor    =  -5.60 kcal/mol
USER        Moving Ligand-Moving Receptor   =  +0.00 kcal/mol
USER    (2) Final Total Internal Energy     =  -2.10 kcal/mol
USER    (3) Torsional Free Energy           =  +1.19 kcal/mol
USER    (4) Unbound System's Energy         =  -2.10 kcal/mol
USER
USER
REMARK  Name = Z14184832
REMARK  5 active torsions:
REMARK  status: ('A' for Active; 'I' for Inactive)
REMARK    1  A    between atoms: C_1  and  O_2
REMARK    2  A    between atoms: O_2  and  C_3
REMARK    3  A    between atoms: C_8  and  N_9
REMARK    4  A    between atoms: C_10  and  C_12
REMARK    5  A    between atoms: C_12  and  N_13
REMARK                            x       y       z     vdW  Elec       q    Type
REMARK                         _______ _______ _______ _____ _____    ______ ____
USER                              x       y       z     vdW  Elec       q    Type
USER                           _______ _______ _______ _____ _____    ______ ____
ROOT
ATOM      1  N   UNL     1     163.977 170.224 172.120 -0.19 +0.06    -0.215 N 
ATOM      2  C   UNL     1     163.806 170.187 173.489 -0.18 -0.06    +0.252 C 
ATOM      3  O   UNL     1     164.417 170.857 174.309 -0.16 +0.08    -0.272 OA
ATOM      4  C   UNL     1     162.910 168.983 173.792 -0.33 -0.02    +0.139 C 
ATOM      5  C   UNL     1     161.858 169.082 174.843 -0.28 +0.00    -0.012 A 
ATOM      6  C   UNL     1     162.123 168.204 175.900 -0.29 +0.00    -0.042 A 
ATOM      7  C   UNL     1     161.255 168.086 176.978 -0.43 -0.00    +0.004 A 
ATOM      8  C   UNL     1     160.085 168.847 176.975 -0.51 -0.00    +0.000 A 
ATOM      9  C   UNL     1     159.806 169.713 175.913 -0.42 -0.00    +0.000 A 
ATOM     10  C   UNL     1     163.402 167.459 175.711 -0.25 -0.01    +0.038 C 
ATOM     11  C   UNL     1     160.695 169.839 174.841 -0.30 +0.00    +0.006 A 
ATOM     12  C   UNL     1     163.831 167.837 174.287 -0.49 -0.01    +0.045 C 
ATOM     13  N   UNL     1     162.379 168.726 172.479 -0.18 +0.05    -0.281 N 
ATOM     14  H   UNL     1     161.751 167.968 172.248 +0.13 -0.02    +0.152 HD
ATOM     15  C   UNL     1     163.124 169.356 171.514 -0.02 -0.10    +0.310 C 
ATOM     16  O   UNL     1     163.040 169.141 170.317 -0.31 +0.12    -0.252 OA
ENDROOT
BRANCH   1  17
ATOM     17  C   UNL     1     165.193 170.677 171.490 -0.11 -0.04    +0.214 C 
BRANCH  17  20
ATOM     18  N   UNL     1     165.029 173.000 172.353 -0.04 +0.05    -0.281 N 
ATOM     19  H   UNL     1     164.384 172.639 173.054 +0.09 -0.03    +0.155 HD
ATOM     20  C   UNL     1     165.459 172.164 171.339 -0.13 +0.00    +0.235 C 
ATOM     21  O   UNL     1     165.891 172.551 170.249 -0.45 -0.13    -0.274 OA
BRANCH  18  23
ATOM     22  C   UNL     1     164.636 175.195 173.391 -0.06 -0.03    +0.141 A 
ATOM     23  C   UNL     1     165.248 174.407 172.395 -0.09 -0.01    +0.076 A 
ATOM     24  C   UNL     1     166.094 175.044 171.471 -0.15 -0.00    +0.027 A 
ATOM     25  C   UNL     1     166.320 176.419 171.513 -0.12 -0.00    +0.002 A 
ATOM     26  C   UNL     1     165.737 177.183 172.511 -0.06 -0.00    +0.004 A 
ATOM     27  C   UNL     1     164.911 176.573 173.454 -0.06 -0.01    +0.047 A 
BRANCH  22  29
ATOM     28  C   UNL     1     164.436 173.869 175.334 -0.05 +0.01    +0.277 C 
ATOM     29  O   UNL     1     163.783 174.566 174.269 -0.05 -0.02    -0.493 OA
ENDBRANCH  22  29
ENDBRANCH  18  23
ENDBRANCH  17  20
ENDBRANCH   1  17
TORSDOF 4
TER
ENDMDL
