MODEL        1
USER    Run = 1
USER
USER    Estimated Free Energy of Binding    =  -4.64 kcal/mol  [=(1)+(2)+(3)-(4)]
USER
USER    (1) Final Intermolecular Energy     =  -6.73 kcal/mol
USER        vdW + Hbond + desolv Energy     =  -6.73 kcal/mol
USER        Electrostatic Energy            =  +0.01 kcal/mol
USER        Moving Ligand-Fixed Receptor    =  -6.73 kcal/mol
USER        Moving Ligand-Moving Receptor   =  +0.00 kcal/mol
USER    (2) Final Total Internal Energy     =  -2.24 kcal/mol
USER    (3) Torsional Free Energy           =  +2.09 kcal/mol
USER    (4) Unbound System's Energy         =  -2.24 kcal/mol
USER
USER
REMARK  Name = Z14256710
REMARK  8 active torsions:
REMARK  status: ('A' for Active; 'I' for Inactive)
REMARK    1  A    between atoms: C_1  and  O_2
REMARK    2  A    between atoms: O_2  and  C_3
REMARK    3  A    between atoms: C_7  and  C_8
REMARK    4  A    between atoms: C_8  and  N_9
REMARK    5  A    between atoms: C_13  and  C_14
REMARK    6  A    between atoms: C_13  and  C_21
REMARK    7  A    between atoms: C_14  and  C_15
REMARK    8  A    between atoms: C_21  and  C_22
REMARK                            x       y       z     vdW  Elec       q    Type
REMARK                         _______ _______ _______ _____ _____    ______ ____
USER                              x       y       z     vdW  Elec       q    Type
USER                           _______ _______ _______ _____ _____    ______ ____
ROOT
ATOM      1  N   UNL     1     164.161 168.599 174.214 -0.28 +0.06    -0.220 N 
ATOM      2  C   UNL     1     163.811 169.454 173.206 -0.24 -0.06    +0.247 C 
ATOM      3  O   UNL     1     162.849 169.311 172.465 -0.26 +0.06    -0.273 OA
ATOM      4  C   UNL     1     164.818 170.632 173.151 -0.28 -0.04    +0.120 C 
ATOM      5  N   UNL     1     165.697 170.191 174.234 -0.12 +0.17    -0.284 N 
ATOM      6  H   UNL     1     166.600 170.594 174.448 -0.17 -0.14    +0.151 HD
ATOM      7  C   UNL     1     165.320 168.998 174.793 +0.04 -0.14    +0.310 C 
ATOM      8  O   UNL     1     165.983 168.410 175.633 -0.01 +0.12    -0.252 OA
ENDROOT
BRANCH   1   9
ATOM      9  C   UNL     1     163.450 167.391 174.568 -0.35 -0.03    +0.153 C 
BRANCH   9  12
ATOM     10  C   UNL     1     160.649 169.003 176.606 -0.37 -0.01    +0.120 A 
ATOM     11  C   UNL     1     161.541 168.710 175.572 -0.25 -0.00    +0.050 A 
ATOM     12  C   UNL     1     162.433 167.629 175.660 -0.35 +0.00    -0.026 A 
ATOM     13  C   UNL     1     162.393 166.818 176.800 -0.32 -0.00    +0.005 A 
ATOM     14  C   UNL     1     161.480 167.085 177.822 -0.40 -0.00    +0.004 A 
ATOM     15  C   UNL     1     160.613 168.177 177.729 -0.34 -0.01    +0.045 A 
BRANCH  10  17
ATOM     16  C   UNL     1     159.942 170.696 175.105 -0.22 +0.01    +0.277 C 
ATOM     17  O   UNL     1     159.871 170.106 176.397 +0.04 +0.05    -0.495 OA
ENDBRANCH  10  17
ENDBRANCH   9  12
ENDBRANCH   1   9
BRANCH   4  18
ATOM     18  C   UNL     1     165.637 170.641 171.835 -0.20 -0.02    +0.070 C 
BRANCH  18  19
ATOM     19  C   UNL     1     165.615 171.913 171.025 -0.18 -0.00    -0.045 A 
ATOM     20  C   UNL     1     164.925 171.972 169.810 -0.31 -0.00    +0.003 A 
ATOM     21  C   UNL     1     164.799 173.180 169.124 -0.36 -0.00    +0.000 A 
ATOM     22  C   UNL     1     165.360 174.344 169.646 -0.25 -0.00    +0.000 A 
ATOM     23  C   UNL     1     166.101 174.286 170.822 -0.23 +0.00    +0.000 A 
ATOM     24  C   UNL     1     166.256 173.069 171.484 -0.10 +0.00    +0.003 A 
ENDBRANCH  18  19
ENDBRANCH   4  18
BRANCH   4  25
ATOM     25  C   UNL     1     164.056 171.942 173.503 +0.07 -0.01    +0.070 C 
BRANCH  25  26
ATOM     26  C   UNL     1     164.137 172.364 174.960 -0.15 +0.01    -0.045 A 
ATOM     27  C   UNL     1     165.346 172.796 175.519 -0.15 -0.00    +0.003 A 
ATOM     28  C   UNL     1     165.381 173.371 176.788 -0.26 -0.00    +0.000 A 
ATOM     29  C   UNL     1     164.213 173.476 177.537 -0.28 +0.00    +0.000 A 
ATOM     30  C   UNL     1     163.026 172.943 177.043 -0.22 +0.00    +0.000 A 
ATOM     31  C   UNL     1     162.996 172.364 175.773 -0.23 +0.00    +0.003 A 
ENDBRANCH  25  26
ENDBRANCH   4  25
TORSDOF 7
TER
ENDMDL
