MODEL        1
USER    Run = 1
USER
USER    Estimated Free Energy of Binding    =  -4.66 kcal/mol  [=(1)+(2)+(3)-(4)]
USER
USER    (1) Final Intermolecular Energy     =  -6.15 kcal/mol
USER        vdW + Hbond + desolv Energy     =  -6.07 kcal/mol
USER        Electrostatic Energy            =  -0.08 kcal/mol
USER        Moving Ligand-Fixed Receptor    =  -6.15 kcal/mol
USER        Moving Ligand-Moving Receptor   =  +0.00 kcal/mol
USER    (2) Final Total Internal Energy     =  -1.40 kcal/mol
USER    (3) Torsional Free Energy           =  +1.49 kcal/mol
USER    (4) Unbound System's Energy         =  -1.40 kcal/mol
USER
USER
REMARK  Name = Z14226503
REMARK  6 active torsions:
REMARK  status: ('A' for Active; 'I' for Inactive)
REMARK    1  A    between atoms: C_1  and  O_2
REMARK    2  A    between atoms: O_2  and  C_3
REMARK    3  A    between atoms: C_6  and  O_7
REMARK    4  A    between atoms: O_7  and  C_8
REMARK    5  A    between atoms: C_8  and  C_9
REMARK    6  A    between atoms: C_9  and  N_10
REMARK                            x       y       z     vdW  Elec       q    Type
REMARK                         _______ _______ _______ _____ _____    ______ ____
USER                              x       y       z     vdW  Elec       q    Type
USER                           _______ _______ _______ _____ _____    ______ ____
ROOT
ATOM      1  N   UNL     1     165.253 170.778 172.790 -0.20 +0.08    -0.221 N 
ATOM      2  C   UNL     1     164.293 169.867 172.438 -0.19 -0.07    +0.247 C 
ATOM      3  O   UNL     1     163.740 169.792 171.347 -0.25 +0.08    -0.273 OA
ATOM      4  C   UNL     1     163.879 169.093 173.699 -0.36 -0.03    +0.117 C 
ATOM      5  C   UNL     1     162.527 169.695 174.114 -0.36 -0.01    +0.070 C 
ATOM      6  C   UNL     1     162.006 169.048 175.363 -0.28 +0.00    -0.042 A 
ATOM      7  C   UNL     1     162.253 167.689 175.600 -0.32 +0.00    -0.044 A 
ATOM      8  C   UNL     1     161.735 167.101 176.764 -0.37 -0.00    +0.004 A 
ATOM      9  C   UNL     1     160.991 167.854 177.673 -0.41 -0.00    +0.000 A 
ATOM     10  C   UNL     1     160.741 169.201 177.425 -0.45 -0.00    +0.000 A 
ATOM     11  C   UNL     1     163.032 166.842 174.624 -0.20 -0.01    +0.038 C 
ATOM     12  C   UNL     1     161.241 169.795 176.270 -0.38 -0.00    +0.004 A 
ATOM     13  C   UNL     1     163.796 167.584 173.510 -0.46 -0.01    +0.040 C 
ATOM     14  N   UNL     1     164.958 169.494 174.579 -0.09 +0.12    -0.285 N 
ATOM     15  H   UNL     1     164.997 169.288 175.570 +0.26 -0.07    +0.151 HD
ATOM     16  C   UNL     1     165.636 170.586 174.083 -0.08 -0.17    +0.309 C 
ATOM     17  O   UNL     1     166.411 171.263 174.735 -0.22 +0.16    -0.252 OA
ENDROOT
BRANCH   1  18
ATOM     18  C   UNL     1     165.621 171.933 171.993 -0.20 -0.02    +0.159 C 
BRANCH  18  19
ATOM     19  C   UNL     1     165.056 173.222 172.603 -0.04 -0.04    +0.248 C 
BRANCH  19  20
ATOM     20  O   UNL     1     164.036 172.892 173.549 +0.10 +0.07    -0.490 OA
BRANCH  20  24
ATOM     21  C   UNL     1     164.148 174.687 177.317 -0.15 +0.05    +0.120 A 
ATOM     22  C   UNL     1     164.758 175.340 176.247 -0.11 +0.01    +0.049 A 
ATOM     23  C   UNL     1     164.730 174.776 174.967 -0.10 +0.00    +0.049 A 
ATOM     24  C   UNL     1     164.084 173.559 174.743 -0.10 +0.00    +0.121 A 
ATOM     25  C   UNL     1     163.458 172.920 175.815 -0.19 +0.01    +0.049 A 
ATOM     26  C   UNL     1     163.473 173.488 177.093 -0.26 +0.01    +0.049 A 
BRANCH  21  28
ATOM     27  C   UNL     1     163.047 176.041 178.896 -0.09 +0.08    +0.277 C 
ATOM     28  O   UNL     1     164.127 175.160 178.602 -0.59 -0.34    -0.495 OA
ENDBRANCH  21  28
ENDBRANCH  20  24
ENDBRANCH  19  20
ENDBRANCH  18  19
ENDBRANCH   1  18
TORSDOF 5
TER
ENDMDL
