MODEL        1
USER    Run = 1
USER
USER    Estimated Free Energy of Binding    =  -4.55 kcal/mol  [=(1)+(2)+(3)-(4)]
USER
USER    (1) Final Intermolecular Energy     =  -5.45 kcal/mol
USER        vdW + Hbond + desolv Energy     =  -5.52 kcal/mol
USER        Electrostatic Energy            =  +0.07 kcal/mol
USER        Moving Ligand-Fixed Receptor    =  -5.45 kcal/mol
USER        Moving Ligand-Moving Receptor   =  +0.00 kcal/mol
USER    (2) Final Total Internal Energy     =  -1.26 kcal/mol
USER    (3) Torsional Free Energy           =  +0.89 kcal/mol
USER    (4) Unbound System's Energy         =  -1.26 kcal/mol
USER
USER
REMARK  Name = Z14241540
REMARK  4 active torsions:
REMARK  status: ('A' for Active; 'I' for Inactive)
REMARK    1  A    between atoms: C_1  and  C_2
REMARK    2  A    between atoms: N_11  and  C_12
REMARK    3  A    between atoms: C_12  and  C_13
REMARK    4  A    between atoms: C_16  and  C_18
REMARK                            x       y       z     vdW  Elec       q    Type
REMARK                         _______ _______ _______ _____ _____    ______ ____
USER                              x       y       z     vdW  Elec       q    Type
USER                           _______ _______ _______ _____ _____    ______ ____
ROOT
ATOM      1  C   UNL     1     166.387 175.473 175.364 +0.00 -0.00    +0.010 C 
ATOM      2  C   UNL     1     165.023 174.926 175.792 -0.17 +0.00    +0.018 C 
ATOM      3  C   UNL     1     164.287 174.125 174.701 -0.13 +0.00    +0.115 C 
ATOM      4  C   UNL     1     165.023 172.908 174.108 -0.03 -0.05    +0.247 C 
ATOM      5  O   UNL     1     165.769 172.150 174.714 -0.09 +0.10    -0.273 OA
ATOM      6  N   UNL     1     164.621 172.782 172.808 -0.07 +0.04    -0.218 N 
ATOM      7  C   UNL     1     164.180 173.989 172.362 +0.13 -0.06    +0.310 C 
ATOM      8  O   UNL     1     163.959 174.318 171.211 -0.21 +0.06    -0.252 OA
ATOM      9  N   UNL     1     164.088 174.837 173.453 -0.08 +0.05    -0.285 N 
ATOM     10  H   UNL     1     163.707 175.770 173.349 -0.01 -0.07    +0.151 HD
ATOM     11  C   UNL     1     162.926 173.621 175.227 -0.02 +0.02    +0.036 C 
ATOM     12  C   UNL     1     163.087 172.781 176.491 -0.31 +0.00    +0.003 C 
ATOM     13  C   UNL     1     163.829 173.547 177.579 -0.36 +0.00    +0.000 C 
ATOM     14  C   UNL     1     165.163 174.114 177.094 -0.25 +0.00    +0.006 C 
ENDROOT
BRANCH   6  15
ATOM     15  C   UNL     1     164.952 171.645 171.983 -0.20 -0.03    +0.173 C 
BRANCH  15  16
ATOM     16  C   UNL     1     164.135 170.442 172.384 -0.23 -0.02    +0.067 A 
ATOM     17  N   UNL     1     163.654 170.287 173.692 -0.15 +0.06    -0.242 NA
ATOM     18  C   UNL     1     163.038 169.120 173.829 -0.28 -0.02    +0.109 A 
ATOM     19  S   UNL     1     163.035 168.150 172.395 -0.48 +0.02    -0.075 S 
ATOM     20  C   UNL     1     163.822 169.394 171.541 -0.13 -0.02    +0.072 A 
BRANCH  18  21
ATOM     21  C   UNL     1     162.250 168.660 174.996 -0.32 -0.00    +0.007 A 
ATOM     22  C   UNL     1     162.559 167.434 175.600 -0.37 -0.00    +0.010 A 
ATOM     23  C   UNL     1     161.990 167.073 176.829 -0.41 -0.00    +0.001 A 
ATOM     24  C   UNL     1     161.082 167.922 177.459 -0.45 -0.00    +0.000 A 
ATOM     25  C   UNL     1     160.705 169.110 176.840 -0.48 -0.00    +0.001 A 
ATOM     26  C   UNL     1     161.273 169.469 175.613 -0.41 -0.00    +0.010 A 
ENDBRANCH  18  21
ENDBRANCH  15  16
ENDBRANCH   6  15
TORSDOF 3
TER
ENDMDL
