MODEL        1
USER    Run = 1
USER
USER    Estimated Free Energy of Binding    =  -4.17 kcal/mol  [=(1)+(2)+(3)-(4)]
USER
USER    (1) Final Intermolecular Energy     =  -6.56 kcal/mol
USER        vdW + Hbond + desolv Energy     =  -6.66 kcal/mol
USER        Electrostatic Energy            =  +0.11 kcal/mol
USER        Moving Ligand-Fixed Receptor    =  -6.56 kcal/mol
USER        Moving Ligand-Moving Receptor   =  +0.00 kcal/mol
USER    (2) Final Total Internal Energy     =  -2.80 kcal/mol
USER    (3) Torsional Free Energy           =  +2.39 kcal/mol
USER    (4) Unbound System's Energy         =  -2.80 kcal/mol
USER
USER
REMARK  Name = Z14343585
REMARK  11 active torsions:
REMARK  status: ('A' for Active; 'I' for Inactive)
REMARK    1  A    between atoms: C_1  and  C_2
REMARK    2  A    between atoms: C_2  and  C_3
REMARK    3  A    between atoms: C_2  and  C_4
REMARK    4  A    between atoms: C_4  and  C_5
REMARK    5  A    between atoms: C_4  and  N_6
REMARK    6  A    between atoms: C_7  and  C_9
REMARK    7  A    between atoms: C_9  and  S_10
REMARK    8  A    between atoms: S_10  and  C_11
REMARK    9  A    between atoms: C_14  and  C_15
REMARK   10  A    between atoms: N_20  and  C_21
REMARK   11  A    between atoms: C_21  and  C_22
REMARK                            x       y       z     vdW  Elec       q    Type
REMARK                         _______ _______ _______ _____ _____    ______ ____
USER                              x       y       z     vdW  Elec       q    Type
USER                           _______ _______ _______ _____ _____    ______ ____
ROOT
ATOM      1  C   UNL     1     163.832 171.340 174.512 -0.04 -0.04    +0.193 A 
ATOM      2  N   UNL     1     163.111 170.256 174.078 -0.12 +0.05    -0.297 N 
ATOM      3  C   UNL     1     164.021 169.412 173.463 -0.24 -0.05    +0.172 A 
ATOM      4  N   UNL     1     165.201 170.014 173.473 -0.28 +0.06    -0.128 NA
ATOM      5  N   UNL     1     165.083 171.212 174.147 -0.21 +0.04    -0.122 NA
ENDROOT
BRANCH   3   6
ATOM      6  C   UNL     1     163.771 168.105 172.910 -0.26 -0.01    +0.056 A 
ATOM      7  S   UNL     1     162.978 167.921 171.396 -0.39 +0.04    -0.093 S 
ATOM      8  C   UNL     1     163.017 166.212 171.491 -0.03 -0.02    +0.046 A 
ATOM      9  C   UNL     1     163.649 165.774 172.629 -0.28 -0.00    +0.008 A 
ATOM     10  C   UNL     1     164.115 166.864 173.420 -0.34 -0.01    +0.019 A 
ENDBRANCH   3   6
BRANCH   2  11
ATOM     11  C   UNL     1     161.681 170.048 174.208 -0.21 -0.01    +0.161 C 
BRANCH  11  12
ATOM     12  C   UNL     1     161.299 169.219 175.415 -0.30 +0.00    -0.028 A 
ATOM     13  C   UNL     1     162.090 168.102 175.727 -0.33 -0.00    +0.005 A 
ATOM     14  C   UNL     1     161.879 167.387 176.906 -0.42 -0.00    +0.000 A 
ATOM     15  C   UNL     1     160.868 167.770 177.785 -0.36 -0.00    +0.000 A 
ATOM     16  C   UNL     1     160.045 168.847 177.470 -0.51 -0.00    +0.000 A 
ATOM     17  C   UNL     1     160.246 169.556 176.285 -0.44 -0.00    +0.005 A 
ENDBRANCH  11  12
ENDBRANCH   2  11
BRANCH   1  18
ATOM     18  S   UNL     1     163.149 172.617 175.465 -0.35 -0.01    -0.077 S 
BRANCH  18  19
ATOM     19  C   UNL     1     164.433 173.899 175.368 -0.11 +0.01    +0.173 C 
BRANCH  19  22
ATOM     20  N   UNL     1     164.989 173.653 172.985 -0.00 +0.06    -0.312 N 
ATOM     21  H   UNL     1     165.255 172.713 173.244 +0.09 -0.03    +0.149 HD
ATOM     22  C   UNL     1     164.475 174.490 173.960 -0.06 -0.02    +0.224 C 
ATOM     23  O   UNL     1     164.047 175.615 173.714 -0.14 +0.06    -0.275 OA
BRANCH  20  24
ATOM     24  C   UNL     1     165.086 174.050 171.576 -0.20 -0.01    +0.072 C 
ATOM     25  C   UNL     1     163.736 174.607 171.112 -0.07 -0.01    +0.028 C 
BRANCH  24  27
ATOM     26  C   UNL     1     164.652 171.632 170.831 -0.32 -0.00    +0.009 C 
ATOM     27  C   UNL     1     165.559 172.862 170.692 -0.30 +0.00    +0.003 C 
ATOM     28  C   UNL     1     165.620 173.253 169.209 -0.46 +0.00    +0.009 C 
ENDBRANCH  24  27
ENDBRANCH  20  24
ENDBRANCH  19  22
ENDBRANCH  18  19
ENDBRANCH   1  18
TORSDOF 8
TER
ENDMDL
