MODEL        1
USER    Run = 1
USER
USER    Estimated Free Energy of Binding    =  -3.91 kcal/mol  [=(1)+(2)+(3)-(4)]
USER
USER    (1) Final Intermolecular Energy     =  -6.00 kcal/mol
USER        vdW + Hbond + desolv Energy     =  -5.62 kcal/mol
USER        Electrostatic Energy            =  -0.38 kcal/mol
USER        Moving Ligand-Fixed Receptor    =  -6.00 kcal/mol
USER        Moving Ligand-Moving Receptor   =  +0.00 kcal/mol
USER    (2) Final Total Internal Energy     =  -2.77 kcal/mol
USER    (3) Torsional Free Energy           =  +2.09 kcal/mol
USER    (4) Unbound System's Energy         =  -2.77 kcal/mol
USER
USER
REMARK  Name = Z14361690
REMARK  8 active torsions:
REMARK  status: ('A' for Active; 'I' for Inactive)
REMARK    1  A    between atoms: C_1  and  N_2
REMARK    2  A    between atoms: C_6  and  C_8
REMARK    3  A    between atoms: C_8  and  S_9
REMARK    4  A    between atoms: C_8  and  C_27
REMARK    5  A    between atoms: S_9  and  C_10
REMARK    6  A    between atoms: C_13  and  C_14
REMARK    7  A    between atoms: N_19  and  C_20
REMARK    8  A    between atoms: C_20  and  C_21
REMARK                            x       y       z     vdW  Elec       q    Type
REMARK                         _______ _______ _______ _____ _____    ______ ____
USER                              x       y       z     vdW  Elec       q    Type
USER                           _______ _______ _______ _____ _____    ______ ____
ROOT
ATOM      1  S   UNL     1     165.577 173.004 176.147 -0.32 +0.01    -0.068 S 
ENDROOT
BRANCH   1   2
ATOM      2  C   UNL     1     165.323 173.503 174.520 +0.09 -0.04    +0.193 A 
ATOM      3  N   UNL     1     165.408 172.708 173.407 -0.01 +0.07    -0.295 N 
ATOM      4  C   UNL     1     164.990 173.512 172.367 -0.02 -0.03    +0.201 A 
ATOM      5  N   UNL     1     164.699 174.710 172.839 -0.13 +0.03    -0.125 NA
ATOM      6  N   UNL     1     164.887 174.697 174.197 -0.09 +0.01    -0.122 NA
BRANCH   4   7
ATOM      7  C   UNL     1     164.884 173.146 170.988 -0.13 -0.01    +0.172 A 
ATOM      8  O   UNL     1     165.948 172.731 170.229 -0.36 -0.23    -0.460 OA
ATOM      9  C   UNL     1     165.490 172.432 168.989 -0.21 +0.03    +0.196 A 
ATOM     10  C   UNL     1     164.142 172.673 168.909 -0.33 -0.01    +0.042 A 
ATOM     11  C   UNL     1     163.750 173.122 170.194 -0.15 -0.01    +0.053 A 
ENDBRANCH   4   7
BRANCH   3  12
ATOM     12  C   UNL     1     165.956 171.364 173.296 -0.12 -0.08    +0.161 C 
BRANCH  12  13
ATOM     13  C   UNL     1     164.965 170.265 173.604 -0.29 +0.01    -0.028 A 
ATOM     14  C   UNL     1     165.264 169.199 174.466 -0.31 -0.00    +0.005 A 
ATOM     15  C   UNL     1     164.307 168.223 174.746 -0.38 -0.00    +0.000 A 
ATOM     16  C   UNL     1     163.049 168.282 174.154 -0.38 -0.00    +0.000 A 
ATOM     17  C   UNL     1     162.752 169.305 173.259 -0.34 -0.00    +0.000 A 
ATOM     18  C   UNL     1     163.706 170.285 172.978 -0.24 -0.00    +0.005 A 
ENDBRANCH  12  13
ENDBRANCH   3  12
ENDBRANCH   1   2
BRANCH   1  19
ATOM     19  C   UNL     1     163.939 173.220 176.910 -0.20 +0.02    +0.170 C 
BRANCH  19  26
ATOM     20  C   UNL     1     159.256 169.344 176.170 -0.31 -0.03    +0.129 C 
ATOM     21  N   UNL     1     160.474 169.949 176.663 -0.18 +0.02    -0.302 N 
ATOM     22  H   UNL     1     161.145 169.336 177.103 +0.09 -0.02    +0.150 HD
ATOM     23  C   UNL     1     160.965 171.047 175.987 -0.13 +0.02    +0.306 C 
ATOM     24  N   UNL     1     162.102 171.561 176.570 -0.10 -0.02    -0.239 N 
ATOM     25  H   UNL     1     162.580 170.988 177.242 +0.30 +0.00    +0.159 HD
ATOM     26  C   UNL     1     162.720 172.708 176.119 -0.17 +0.06    +0.238 C 
ATOM     27  O   UNL     1     162.277 173.393 175.191 -0.12 -0.15    -0.274 OA
ATOM     28  O   UNL     1     160.370 171.522 175.028 -0.26 -0.04    -0.252 OA
ENDBRANCH  19  26
BRANCH  19  29
ATOM     29  C   UNL     1     163.763 174.627 177.477 -0.24 -0.01    -0.025 A 
ATOM     30  C   UNL     1     163.982 175.776 176.697 -0.12 +0.00    +0.005 A 
ATOM     31  C   UNL     1     163.750 177.048 177.223 -0.05 +0.00    +0.000 A 
ATOM     32  C   UNL     1     163.329 177.192 178.542 -0.09 +0.00    +0.000 A 
ATOM     33  C   UNL     1     163.147 176.066 179.340 -0.20 +0.00    +0.000 A 
ATOM     34  C   UNL     1     163.363 174.791 178.815 -0.13 +0.00    +0.005 A 
ENDBRANCH  19  29
ENDBRANCH   1  19
TORSDOF 7
TER
ENDMDL
