MODEL        1
USER    Run = 1
USER
USER    Estimated Free Energy of Binding    =  -4.31 kcal/mol  [=(1)+(2)+(3)-(4)]
USER
USER    (1) Final Intermolecular Energy     =  -5.50 kcal/mol
USER        vdW + Hbond + desolv Energy     =  -5.27 kcal/mol
USER        Electrostatic Energy            =  -0.24 kcal/mol
USER        Moving Ligand-Fixed Receptor    =  -5.50 kcal/mol
USER        Moving Ligand-Moving Receptor   =  +0.00 kcal/mol
USER    (2) Final Total Internal Energy     =  -0.96 kcal/mol
USER    (3) Torsional Free Energy           =  +1.19 kcal/mol
USER    (4) Unbound System's Energy         =  -0.96 kcal/mol
USER
USER
REMARK  Name = Z14448228
REMARK  6 active torsions:
REMARK  status: ('A' for Active; 'I' for Inactive)
REMARK    1  A    between atoms: C_1  and  C_2
REMARK    2  A    between atoms: C_6  and  S_7
REMARK    3  A    between atoms: S_7  and  C_8
REMARK    4  A    between atoms: N_14  and  C_15
REMARK    5  A    between atoms: C_15  and  C_16
REMARK    6  A    between atoms: C_25  and  C_26
REMARK                            x       y       z     vdW  Elec       q    Type
REMARK                         _______ _______ _______ _____ _____    ______ ____
USER                              x       y       z     vdW  Elec       q    Type
USER                           _______ _______ _______ _____ _____    ______ ____
ROOT
ATOM      1  C   UNL     1     163.825 167.675 173.560 -0.45 -0.01    +0.052 C 
ATOM      2  C   UNL     1     164.150 169.050 173.088 -0.36 +0.00    -0.008 A 
ATOM      3  C   UNL     1     163.841 169.637 171.865 -0.27 +0.01    -0.026 A 
ATOM      4  C   UNL     1     162.997 168.976 170.824 -0.35 -0.02    +0.045 C 
ATOM      5  C   UNL     1     164.410 170.955 171.786 -0.18 -0.02    +0.075 A 
ATOM      6  C   UNL     1     164.839 171.394 173.014 -0.17 -0.03    +0.117 A 
ATOM      7  N   UNL     1     165.071 172.676 173.357 -0.07 +0.05    -0.216 NA
ATOM      8  C   UNL     1     165.134 173.491 172.380 -0.09 -0.03    +0.174 C 
ATOM      9  N   UNL     1     165.088 173.127 171.021 -0.09 +0.01    -0.283 N 
ATOM     10  C   UNL     1     164.501 171.895 170.680 -0.13 -0.04    +0.264 C 
ATOM     11  O   UNL     1     164.092 171.618 169.560 -0.28 +0.07    -0.267 OA
ATOM     12  S   UNL     1     164.943 170.131 174.148 -0.42 +0.03    -0.073 S 
ENDROOT
BRANCH   9  13
ATOM     13  C   UNL     1     165.576 173.912 169.862 -0.27 +0.01    +0.162 C 
BRANCH  13  14
ATOM     14  C   UNL     1     166.690 174.911 170.222 -0.21 -0.00    -0.028 A 
ATOM     15  C   UNL     1     166.764 176.164 169.595 -0.24 +0.00    +0.005 A 
ATOM     16  C   UNL     1     167.761 177.092 169.943 -0.20 -0.00    +0.000 A 
ATOM     17  C   UNL     1     168.708 176.786 170.920 -0.10 -0.00    +0.000 A 
ATOM     18  C   UNL     1     168.675 175.531 171.525 -0.14 -0.00    +0.000 A 
ATOM     19  C   UNL     1     167.689 174.603 171.173 -0.01 +0.00    +0.005 A 
ENDBRANCH  13  14
ENDBRANCH   9  13
BRANCH   8  20
ATOM     20  S   UNL     1     165.025 175.190 172.845 -0.20 +0.02    -0.073 S 
BRANCH  20  21
ATOM     21  C   UNL     1     165.069 175.153 174.703 -0.06 -0.01    +0.166 C 
ATOM     22  C   UNL     1     163.739 174.730 175.289 +0.01 +0.13    +0.321 C 
ATOM     23  O   UNL     1     163.021 173.853 174.833 -0.32 -0.09    -0.250 OA
ATOM     24  O   UNL     1     163.480 175.385 176.451 -0.58 -0.43    -0.464 OA
ATOM     25  C   UNL     1     164.500 176.324 176.751 -0.03 +0.11    +0.234 C 
ATOM     26  C   UNL     1     165.479 176.335 175.592 -0.08 +0.01    +0.067 C 
ENDBRANCH  20  21
ENDBRANCH   8  20
TORSDOF 4
TER
ENDMDL
