MODEL        1
USER    Run = 1
USER
USER    Estimated Free Energy of Binding    =  -4.71 kcal/mol  [=(1)+(2)+(3)-(4)]
USER
USER    (1) Final Intermolecular Energy     =  -6.50 kcal/mol
USER        vdW + Hbond + desolv Energy     =  -6.39 kcal/mol
USER        Electrostatic Energy            =  -0.11 kcal/mol
USER        Moving Ligand-Fixed Receptor    =  -6.50 kcal/mol
USER        Moving Ligand-Moving Receptor   =  +0.00 kcal/mol
USER    (2) Final Total Internal Energy     =  -1.08 kcal/mol
USER    (3) Torsional Free Energy           =  +1.79 kcal/mol
USER    (4) Unbound System's Energy         =  -1.08 kcal/mol
USER
USER
REMARK  Name = Z14486479
REMARK  10 active torsions:
REMARK  status: ('A' for Active; 'I' for Inactive)
REMARK    1  A    between atoms: C_1  and  C_2
REMARK    2  A    between atoms: C_2  and  N_3
REMARK    3  A    between atoms: N_3  and  C_4
REMARK    4  A    between atoms: C_4  and  C_5
REMARK    5  A    between atoms: C_5  and  C_7
REMARK    6  A    between atoms: C_8  and  C_10
REMARK    7  A    between atoms: C_10  and  S_11
REMARK    8  A    between atoms: S_11  and  C_12
REMARK    9  A    between atoms: C_16  and  C_17
REMARK   10  A    between atoms: C_19  and  C_20
REMARK                            x       y       z     vdW  Elec       q    Type
REMARK                         _______ _______ _______ _____ _____    ______ ____
USER                              x       y       z     vdW  Elec       q    Type
USER                           _______ _______ _______ _____ _____    ______ ____
ROOT
ATOM      1  S   UNL     1     152.078 164.571 179.459 -0.40 +0.02    -0.075 S 
ENDROOT
BRANCH   1   2
ATOM      2  C   UNL     1     153.573 165.262 178.895 -0.19 -0.10    +0.211 A 
ATOM      3  N   UNL     1     154.493 164.567 178.227 -0.23 +0.06    -0.137 NA
ATOM      4  N   UNL     1     155.427 165.514 177.962 -0.24 +0.09    -0.200 N 
ATOM      5  C   UNL     1     155.015 166.745 178.491 -0.23 -0.15    +0.254 A 
ATOM      6  N   UNL     1     155.764 167.878 178.351 -0.36 +0.14    -0.216 NA
ATOM      7  C   UNL     1     156.880 167.759 177.697 -0.45 -0.03    +0.044 A 
ATOM      8  C   UNL     1     157.401 166.484 177.101 -0.41 -0.02    +0.046 A 
ATOM      9  C   UNL     1     157.741 168.984 177.500 -0.46 -0.04    +0.066 C 
ATOM     10  C   UNL     1     156.636 165.392 177.266 -0.36 -0.02    +0.045 A 
ATOM     11  C   UNL     1     157.012 164.046 176.729 -0.37 -0.03    +0.066 C 
ATOM     12  N   UNL     1     153.850 166.583 179.075 -0.27 +0.13    -0.183 NA
ENDBRANCH   1   2
BRANCH   1  13
ATOM     13  C   UNL     1     150.952 165.999 179.410 -0.18 -0.09    +0.173 C 
BRANCH  13  15
ATOM     14  N   UNL     1     151.019 167.350 181.549 -0.06 +0.20    -0.297 N 
ATOM     15  C   UNL     1     150.467 166.275 180.829 -0.19 -0.09    +0.226 C 
ATOM     16  O   UNL     1     149.612 165.534 181.327 -0.35 +0.05    -0.275 OA
BRANCH  14  18
ATOM     17  C   UNL     1     151.610 168.304 183.831 -0.32 -0.03    +0.024 C 
ATOM     18  C   UNL     1     150.704 167.419 182.982 -0.20 -0.10    +0.105 C 
ENDBRANCH  14  18
BRANCH  14  19
ATOM     19  C   UNL     1     152.254 168.023 181.122 -0.24 -0.13    +0.137 C 
BRANCH  19  20
ATOM     20  C   UNL     1     152.025 169.255 180.272 -0.28 +0.06    -0.062 C 
ATOM     21  C   UNL     1     153.236 170.140 180.091 -0.35 -0.04    +0.040 C 
ATOM     22  C   UNL     1     150.869 169.615 179.689 -0.24 -0.01    +0.009 C 
ENDBRANCH  19  20
ENDBRANCH  14  19
ENDBRANCH  13  15
ENDBRANCH   1  13
TORSDOF 6
TER
ENDMDL
