MODEL        1
USER    Run = 1
USER
USER    Estimated Free Energy of Binding    =  -4.74 kcal/mol  [=(1)+(2)+(3)-(4)]
USER
USER    (1) Final Intermolecular Energy     =  -6.53 kcal/mol
USER        vdW + Hbond + desolv Energy     =  -6.15 kcal/mol
USER        Electrostatic Energy            =  -0.37 kcal/mol
USER        Moving Ligand-Fixed Receptor    =  -6.53 kcal/mol
USER        Moving Ligand-Moving Receptor   =  +0.00 kcal/mol
USER    (2) Final Total Internal Energy     =  -2.59 kcal/mol
USER    (3) Torsional Free Energy           =  +1.79 kcal/mol
USER    (4) Unbound System's Energy         =  -2.59 kcal/mol
USER
USER
REMARK  Name = Z14474665
REMARK  6 active torsions:
REMARK  status: ('A' for Active; 'I' for Inactive)
REMARK    1  A    between atoms: C_2  and  C_3
REMARK    2  A    between atoms: C_3  and  N_4
REMARK    3  A    between atoms: C_8  and  C_11
REMARK    4  A    between atoms: C_8  and  C_17
REMARK    5  A    between atoms: N_23  and  C_24
REMARK    6  A    between atoms: C_24  and  C_25
REMARK                            x       y       z     vdW  Elec       q    Type
REMARK                         _______ _______ _______ _____ _____    ______ ____
USER                              x       y       z     vdW  Elec       q    Type
USER                           _______ _______ _______ _____ _____    ______ ____
ROOT
ATOM      1  N   UNL     1     165.174 172.360 175.996 -0.05 +0.05    -0.215 N 
ATOM      2  C   UNL     1     164.291 172.022 175.000 -0.01 -0.05    +0.256 C 
ATOM      3  O   UNL     1     163.109 172.348 174.973 -0.17 -0.00    -0.272 OA
ATOM      4  C   UNL     1     165.064 171.226 173.900 -0.19 -0.06    +0.164 C 
ATOM      5  N   UNL     1     166.339 171.114 174.594 -0.11 +0.18    -0.278 N 
ATOM      6  H   UNL     1     167.127 170.577 174.265 -0.40 -0.19    +0.152 HD
ATOM      7  C   UNL     1     166.338 171.690 175.832 +0.14 -0.16    +0.310 C 
ATOM      8  O   UNL     1     167.261 171.613 176.623 -0.33 +0.16    -0.252 OA
ENDROOT
BRANCH   4   9
ATOM      9  C   UNL     1     164.453 169.840 173.654 -0.33 +0.00    -0.011 A 
ATOM     10  C   UNL     1     163.450 169.662 172.687 -0.31 -0.00    +0.006 A 
ATOM     11  C   UNL     1     162.928 168.390 172.413 -0.36 -0.00    +0.000 A 
ATOM     12  C   UNL     1     163.392 167.277 173.110 -0.28 -0.00    +0.000 A 
ATOM     13  C   UNL     1     164.360 167.431 174.094 -0.40 -0.00    +0.000 A 
ATOM     14  C   UNL     1     164.878 168.698 174.370 -0.39 -0.00    +0.006 A 
ENDBRANCH   4   9
BRANCH   4  15
ATOM     15  C   UNL     1     165.286 172.063 172.624 -0.21 +0.00    -0.011 A 
ATOM     16  C   UNL     1     165.435 171.477 171.348 -0.26 -0.00    +0.006 A 
ATOM     17  C   UNL     1     165.530 172.258 170.194 -0.22 +0.00    +0.000 A 
ATOM     18  C   UNL     1     165.495 173.645 170.286 -0.30 +0.00    +0.000 A 
ATOM     19  C   UNL     1     165.394 174.249 171.537 -0.19 -0.00    +0.000 A 
ATOM     20  C   UNL     1     165.295 173.469 172.693 -0.12 -0.00    +0.006 A 
ENDBRANCH   4  15
BRANCH   1  21
ATOM     21  C   UNL     1     164.903 173.269 177.084 -0.17 -0.01    +0.213 C 
BRANCH  21  23
ATOM     22  O   UNL     1     163.376 175.103 176.708 -0.72 -0.24    -0.274 OA
ATOM     23  C   UNL     1     164.533 174.690 176.611 -0.10 +0.06    +0.231 C 
ATOM     24  N   UNL     1     165.550 175.479 176.117 -0.03 -0.04    -0.311 N 
ATOM     25  H   UNL     1     166.510 175.185 176.227 +0.04 -0.00    +0.149 HD
BRANCH  24  26
ATOM     26  C   UNL     1     165.371 176.885 175.782 -0.04 +0.02    +0.135 C 
BRANCH  26  27
ATOM     27  C   UNL     1     166.688 177.665 175.669 -0.03 +0.00    +0.135 C 
ATOM     28  O   UNL     1     167.758 176.967 176.340 -0.57 -0.09    -0.375 OA
ATOM     29  C   UNL     1     168.635 177.947 176.923 -0.04 -0.01    +0.160 C 
ATOM     30  C   UNL     1     168.145 179.315 176.492 -0.02 -0.00    +0.030 C 
ATOM     31  C   UNL     1     166.678 179.071 176.239 +0.00 -0.00    +0.035 C 
ENDBRANCH  26  27
ENDBRANCH  24  26
ENDBRANCH  21  23
ENDBRANCH   1  21
TORSDOF 6
TER
ENDMDL
