MODEL        1
USER    Run = 1
USER
USER    Estimated Free Energy of Binding    =  -4.44 kcal/mol  [=(1)+(2)+(3)-(4)]
USER
USER    (1) Final Intermolecular Energy     =  -5.34 kcal/mol
USER        vdW + Hbond + desolv Energy     =  -5.34 kcal/mol
USER        Electrostatic Energy            =  -0.00 kcal/mol
USER        Moving Ligand-Fixed Receptor    =  -5.34 kcal/mol
USER        Moving Ligand-Moving Receptor   =  +0.00 kcal/mol
USER    (2) Final Total Internal Energy     =  -0.50 kcal/mol
USER    (3) Torsional Free Energy           =  +0.89 kcal/mol
USER    (4) Unbound System's Energy         =  -0.50 kcal/mol
USER
USER
REMARK  Name = Z14481395
REMARK  5 active torsions:
REMARK  status: ('A' for Active; 'I' for Inactive)
REMARK    1  A    between atoms: C_1  and  C_2
REMARK    2  A    between atoms: C_2  and  C_3
REMARK    3  A    between atoms: N_7  and  C_8
REMARK    4  A    between atoms: C_8  and  C_9
REMARK    5  A    between atoms: C_13  and  C_15
REMARK                            x       y       z     vdW  Elec       q    Type
REMARK                         _______ _______ _______ _____ _____    ______ ____
USER                              x       y       z     vdW  Elec       q    Type
USER                           _______ _______ _______ _____ _____    ______ ____
ROOT
ATOM      1  C   UNL     1     160.991 167.965 177.033 -0.40 -0.02    +0.153 C 
ENDROOT
BRANCH   1   6
ATOM      2  C   UNL     1     162.696 168.604 172.657 -0.38 -0.01    +0.041 C 
ATOM      3  C   UNL     1     163.037 169.040 174.074 -0.35 -0.02    +0.107 C 
ATOM      4  C   UNL     1     162.532 168.000 175.094 -0.19 -0.03    +0.246 C 
ATOM      5  O   UNL     1     162.978 166.866 175.214 -0.30 +0.05    -0.273 OA
ATOM      6  N   UNL     1     161.545 168.567 175.849 -0.25 +0.01    -0.220 N 
ATOM      7  C   UNL     1     161.430 169.893 175.550 -0.23 -0.01    +0.310 C 
ATOM      8  O   UNL     1     160.781 170.735 176.144 -0.33 -0.01    -0.252 OA
ATOM      9  N   UNL     1     162.244 170.177 174.479 -0.17 +0.03    -0.285 N 
ATOM     10  H   UNL     1     162.359 171.128 174.157 +0.09 -0.01    +0.151 HD
ATOM     11  C   UNL     1     164.525 169.307 174.260 -0.35 -0.01    +0.041 C 
ENDBRANCH   1   6
BRANCH   1  12
ATOM     12  C   UNL     1     159.480 167.930 177.099 -0.42 +0.01    -0.029 A 
ATOM     13  C   UNL     1     158.789 166.746 176.803 -0.02 -0.00    +0.017 A 
ATOM     14  C   UNL     1     157.421 166.608 177.107 -0.40 -0.03    +0.055 A 
ATOM     15  C   UNL     1     156.726 167.710 177.620 -0.48 -0.01    +0.012 A 
ATOM     16  C   UNL     1     157.387 168.918 177.847 -0.40 -0.00    +0.001 A 
ATOM     17  C   UNL     1     158.756 169.024 177.597 -0.32 -0.00    +0.005 A 
BRANCH  14  18
ATOM     18  C   UNL     1     156.755 165.263 176.955 -0.13 -0.20    +0.417 C 
ATOM     19  F   UNL     1     157.445 164.271 177.591 -0.08 +0.07    -0.166 F 
ATOM     20  F   UNL     1     156.646 164.867 175.658 -0.13 +0.12    -0.166 F 
ATOM     21  F   UNL     1     155.494 165.218 177.470 -0.09 +0.08    -0.166 F 
ENDBRANCH  14  18
ENDBRANCH   1  12
TORSDOF 3
TER
ENDMDL
