MODEL        1
USER    Run = 1
USER
USER    Estimated Free Energy of Binding    =  -6.26 kcal/mol  [=(1)+(2)+(3)-(4)]
USER
USER    (1) Final Intermolecular Energy     =  -7.15 kcal/mol
USER        vdW + Hbond + desolv Energy     =  -7.04 kcal/mol
USER        Electrostatic Energy            =  -0.11 kcal/mol
USER        Moving Ligand-Fixed Receptor    =  -7.15 kcal/mol
USER        Moving Ligand-Moving Receptor   =  +0.00 kcal/mol
USER    (2) Final Total Internal Energy     =  -0.44 kcal/mol
USER    (3) Torsional Free Energy           =  +0.89 kcal/mol
USER    (4) Unbound System's Energy         =  -0.44 kcal/mol
USER
USER
REMARK  Name = Z14492726
REMARK  6 active torsions:
REMARK  status: ('A' for Active; 'I' for Inactive)
REMARK    1  A    between atoms: C_1  and  C_2
REMARK    2  A    between atoms: C_2  and  S_3
REMARK    3  A    between atoms: C_2  and  C_15
REMARK    4  A    between atoms: S_3  and  C_4
REMARK    5  A    between atoms: C_8  and  C_9
REMARK    6  A    between atoms: C_11  and  C_12
REMARK                            x       y       z     vdW  Elec       q    Type
REMARK                         _______ _______ _______ _____ _____    ______ ____
USER                              x       y       z     vdW  Elec       q    Type
USER                           _______ _______ _______ _____ _____    ______ ____
ROOT
ATOM      1  C   UNL     1     162.629 168.378 172.289 -0.33 -0.01    +0.032 C 
ATOM      2  C   UNL     1     163.154 168.447 173.711 -0.31 -0.03    +0.171 C 
ENDROOT
BRANCH   2   3
ATOM      3  C   UNL     1     162.184 169.098 174.699 -0.12 -0.03    +0.349 C 
ATOM      4  N   UNL     1     162.265 168.572 175.949 -0.29 +0.00    -0.044 NA
ATOM      5  C   UNL     1     161.125 168.484 176.536 -0.37 -0.02    +0.172 C 
ATOM      6  C   UNL     1     160.116 169.536 176.383 -0.41 -0.01    +0.112 C 
ATOM      7  C   UNL     1     158.904 169.305 176.922 -0.27 -0.01    +0.019 C 
ATOM      8  C   UNL     1     158.437 167.925 176.985 -0.49 +0.00    -0.003 C 
ATOM      9  C   UNL     1     159.315 166.919 177.095 -0.18 +0.00    -0.019 C 
ATOM     10  C   UNL     1     160.253 170.327 175.135 -0.20 +0.00    +0.378 C 
ATOM     11  O   UNL     1     159.453 171.212 174.850 -0.37 -0.02    -0.238 OA
ATOM     12  C   UNL     1     160.791 167.167 177.192 -0.31 -0.02    +0.112 C 
ATOM     13  N   UNL     1     161.270 169.925 174.296 -0.41 -0.00    +0.033 NA
ENDBRANCH   2   3
BRANCH   2  14
ATOM     14  S   UNL     1     164.842 169.173 173.875 -0.51 +0.02    -0.069 S 
BRANCH  14  15
ATOM     15  C   UNL     1     164.980 170.479 172.713 -0.15 -0.07    +0.212 A 
ATOM     16  N   UNL     1     164.285 170.419 171.571 -0.25 +0.04    -0.137 NA
ATOM     17  N   UNL     1     164.668 171.541 170.923 -0.19 +0.03    -0.200 N 
ATOM     18  C   UNL     1     165.617 172.219 171.697 -0.05 -0.01    +0.254 A 
ATOM     19  N   UNL     1     166.185 173.387 171.286 -0.19 -0.03    -0.216 NA
ATOM     20  C   UNL     1     165.811 173.830 170.119 -0.27 +0.01    +0.044 A 
ATOM     21  C   UNL     1     164.801 173.196 169.234 -0.35 -0.01    +0.046 A 
ATOM     22  C   UNL     1     166.408 175.135 169.613 -0.28 +0.01    +0.066 C 
ATOM     23  C   UNL     1     164.264 172.046 169.676 -0.31 -0.01    +0.045 A 
ATOM     24  C   UNL     1     163.238 171.292 168.884 -0.27 -0.02    +0.066 C 
ATOM     25  N   UNL     1     165.808 171.552 172.819 -0.18 +0.06    -0.183 NA
ENDBRANCH  14  15
ENDBRANCH   2  14
TORSDOF 3
TER
ENDMDL
