MODEL        1
USER    Run = 1
USER
USER    Estimated Free Energy of Binding    =  -4.88 kcal/mol  [=(1)+(2)+(3)-(4)]
USER
USER    (1) Final Intermolecular Energy     =  -5.77 kcal/mol
USER        vdW + Hbond + desolv Energy     =  -5.46 kcal/mol
USER        Electrostatic Energy            =  -0.31 kcal/mol
USER        Moving Ligand-Fixed Receptor    =  -5.77 kcal/mol
USER        Moving Ligand-Moving Receptor   =  +0.00 kcal/mol
USER    (2) Final Total Internal Energy     =  -1.32 kcal/mol
USER    (3) Torsional Free Energy           =  +0.89 kcal/mol
USER    (4) Unbound System's Energy         =  -1.32 kcal/mol
USER
USER
REMARK  Name = Z14488305
REMARK  5 active torsions:
REMARK  status: ('A' for Active; 'I' for Inactive)
REMARK    1  A    between atoms: C_1  and  C_2
REMARK    2  A    between atoms: C_4  and  C_5
REMARK    3  A    between atoms: C_8  and  S_9
REMARK    4  A    between atoms: S_9  and  C_10
REMARK    5  A    between atoms: C_10  and  C_11
REMARK                            x       y       z     vdW  Elec       q    Type
REMARK                         _______ _______ _______ _____ _____    ______ ____
USER                              x       y       z     vdW  Elec       q    Type
USER                           _______ _______ _______ _____ _____    ______ ____
ROOT
ATOM      1  C   UNL     1     164.600 176.510 173.704 -0.04 -0.06    +0.210 C 
ENDROOT
BRANCH   1   2
ATOM      2  C   UNL     1     164.960 175.567 172.568 +0.01 -0.09    +0.346 C 
ATOM      3  N   UNL     1     163.963 174.868 171.902 -0.23 +0.01    -0.045 NA
ATOM      4  C   UNL     1     164.304 174.247 170.815 -0.17 -0.03    +0.173 C 
ATOM      5  C   UNL     1     165.684 174.288 170.329 -0.26 +0.01    +0.112 C 
ATOM      6  C   UNL     1     166.004 173.598 169.226 -0.41 +0.01    +0.020 C 
ATOM      7  C   UNL     1     165.240 172.438 168.855 -0.47 +0.00    +0.017 C 
ATOM      8  C   UNL     1     163.954 172.386 169.197 -0.45 -0.01    +0.026 C 
ATOM      9 CL   UNL     1     163.006 170.991 168.849 -0.26 +0.03    -0.088 Cl
ATOM     10  C   UNL     1     166.688 174.589 171.363 +0.01 +0.01    +0.378 C 
ATOM     11  O   UNL     1     167.776 174.025 171.393 -0.16 -0.04    -0.238 OA
ATOM     12  C   UNL     1     163.273 173.507 169.950 -0.11 -0.04    +0.132 C 
ATOM     13  N   UNL     1     166.228 175.428 172.336 -0.12 -0.01    +0.032 NA
ENDBRANCH   1   2
BRANCH   1  14
ATOM     14  S   UNL     1     164.924 175.909 175.368 -0.17 -0.01    -0.072 S 
BRANCH  14  21
ATOM     15  C   UNL     1     160.571 169.882 175.642 -0.49 -0.00    +0.066 C 
ATOM     16  C   UNL     1     161.718 170.797 175.329 -0.34 -0.00    +0.044 A 
ATOM     17  N   UNL     1     161.735 171.952 175.902 -0.26 -0.04    -0.216 NA
ATOM     18  C   UNL     1     162.799 172.770 175.591 -0.08 +0.05    +0.254 A 
ATOM     19  N   UNL     1     163.799 172.395 174.697 -0.12 +0.02    -0.200 N 
ATOM     20  N   UNL     1     164.696 173.379 174.540 -0.11 +0.02    -0.137 NA
ATOM     21  C   UNL     1     164.169 174.346 175.291 -0.04 +0.04    +0.211 A 
ATOM     22  C   UNL     1     163.770 171.124 174.080 -0.17 -0.01    +0.045 A 
ATOM     23  C   UNL     1     164.867 170.789 173.117 -0.30 -0.02    +0.066 C 
ATOM     24  N   UNL     1     163.023 174.031 175.951 -0.47 -0.15    -0.183 NA
ATOM     25  C   UNL     1     162.759 170.291 174.368 -0.24 -0.01    +0.046 A 
ENDBRANCH  14  21
ENDBRANCH   1  14
TORSDOF 3
TER
ENDMDL
