MODEL        1
USER    Run = 1
USER
USER    Estimated Free Energy of Binding    =  -5.46 kcal/mol  [=(1)+(2)+(3)-(4)]
USER
USER    (1) Final Intermolecular Energy     =  -7.25 kcal/mol
USER        vdW + Hbond + desolv Energy     =  -7.30 kcal/mol
USER        Electrostatic Energy            =  +0.05 kcal/mol
USER        Moving Ligand-Fixed Receptor    =  -7.25 kcal/mol
USER        Moving Ligand-Moving Receptor   =  +0.00 kcal/mol
USER    (2) Final Total Internal Energy     =  -0.78 kcal/mol
USER    (3) Torsional Free Energy           =  +1.79 kcal/mol
USER    (4) Unbound System's Energy         =  -0.78 kcal/mol
USER
USER
REMARK  Name = Z14490816
REMARK  9 active torsions:
REMARK  status: ('A' for Active; 'I' for Inactive)
REMARK    1  A    between atoms: C_1  and  C_2
REMARK    2  A    between atoms: C_2  and  O_3
REMARK    3  A    between atoms: O_3  and  C_4
REMARK    4  A    between atoms: C_9  and  N_10
REMARK    5  A    between atoms: C_11  and  C_13
REMARK    6  A    between atoms: C_13  and  S_14
REMARK    7  A    between atoms: S_14  and  C_15
REMARK    8  A    between atoms: C_19  and  C_20
REMARK    9  A    between atoms: C_22  and  C_23
REMARK                            x       y       z     vdW  Elec       q    Type
REMARK                         _______ _______ _______ _____ _____    ______ ____
USER                              x       y       z     vdW  Elec       q    Type
USER                           _______ _______ _______ _____ _____    ______ ____
ROOT
ATOM      1  N   UNL     1     154.790 166.123 178.515 -0.22 +0.15    -0.282 N 
ATOM      2  H   UNL     1     155.291 165.402 178.025 +0.10 -0.07    +0.155 HD
ATOM      3  C   UNL     1     155.421 167.364 178.550 -0.34 -0.14    +0.228 C 
ATOM      4  O   UNL     1     155.016 168.362 179.143 -0.37 +0.24    -0.275 OA
ENDROOT
BRANCH   1   6
ATOM      5  C   UNL     1     152.922 164.544 178.894 -0.23 -0.05    +0.142 A 
ATOM      6  C   UNL     1     153.639 165.715 179.236 -0.29 -0.04    +0.076 A 
ATOM      7  C   UNL     1     153.149 166.498 180.295 -0.32 -0.02    +0.027 A 
ATOM      8  C   UNL     1     151.999 166.140 181.008 -0.30 -0.00    +0.002 A 
ATOM      9  C   UNL     1     151.317 164.978 180.685 -0.35 -0.00    +0.004 A 
ATOM     10  C   UNL     1     151.773 164.191 179.629 -0.22 -0.01    +0.047 A 
BRANCH   5  11
ATOM     11  O   UNL     1     153.149 163.685 177.844 -0.08 +0.18    -0.490 OA
BRANCH  11  13
ATOM     12  C   UNL     1     154.481 161.686 177.898 -0.36 -0.02    +0.048 C 
ATOM     13  C   UNL     1     153.098 162.283 178.091 -0.18 -0.08    +0.226 C 
ENDBRANCH  11  13
ENDBRANCH   5  11
ENDBRANCH   1   6
BRANCH   3  14
ATOM     14  C   UNL     1     156.736 167.414 177.764 -0.40 -0.09    +0.173 C 
BRANCH  14  15
ATOM     15  S   UNL     1     157.383 169.104 177.802 -0.46 +0.04    -0.075 S 
BRANCH  15  16
ATOM     16  C   UNL     1     158.917 168.976 176.988 -0.24 -0.07    +0.211 A 
ATOM     17  N   UNL     1     159.759 168.021 177.370 -0.38 +0.04    -0.137 NA
ATOM     18  N   UNL     1     160.810 168.210 176.552 -0.32 +0.02    -0.200 N 
ATOM     19  C   UNL     1     160.544 169.280 175.681 -0.09 -0.01    +0.254 A 
ATOM     20  N   UNL     1     161.454 169.669 174.739 -0.27 +0.01    -0.216 NA
ATOM     21  C   UNL     1     162.577 169.008 174.698 -0.30 -0.01    +0.044 A 
ATOM     22  C   UNL     1     162.936 167.859 175.591 -0.29 -0.01    +0.046 A 
ATOM     23  C   UNL     1     163.629 169.396 173.686 -0.38 -0.02    +0.066 C 
ATOM     24  C   UNL     1     162.016 167.501 176.501 -0.37 -0.00    +0.045 A 
ATOM     25  C   UNL     1     162.219 166.373 177.466 -0.32 -0.01    +0.066 C 
ATOM     26  N   UNL     1     159.343 169.758 175.956 -0.31 +0.03    -0.183 NA
ENDBRANCH  15  16
ENDBRANCH  14  15
ENDBRANCH   3  14
TORSDOF 6
TER
ENDMDL
