MODEL        1
USER    Run = 1
USER
USER    Estimated Free Energy of Binding    =  -5.88 kcal/mol  [=(1)+(2)+(3)-(4)]
USER
USER    (1) Final Intermolecular Energy     =  -7.07 kcal/mol
USER        vdW + Hbond + desolv Energy     =  -6.82 kcal/mol
USER        Electrostatic Energy            =  -0.25 kcal/mol
USER        Moving Ligand-Fixed Receptor    =  -7.07 kcal/mol
USER        Moving Ligand-Moving Receptor   =  +0.00 kcal/mol
USER    (2) Final Total Internal Energy     =  -0.42 kcal/mol
USER    (3) Torsional Free Energy           =  +1.19 kcal/mol
USER    (4) Unbound System's Energy         =  -0.42 kcal/mol
USER
USER
REMARK  Name = Z14481782
REMARK  6 active torsions:
REMARK  status: ('A' for Active; 'I' for Inactive)
REMARK    1  A    between atoms: C_1  and  C_2
REMARK    2  A    between atoms: C_4  and  C_5
REMARK    3  A    between atoms: C_8  and  S_9
REMARK    4  A    between atoms: S_9  and  C_10
REMARK    5  A    between atoms: C_10  and  C_11
REMARK    6  A    between atoms: N_13  and  C_14
REMARK                            x       y       z     vdW  Elec       q    Type
REMARK                         _______ _______ _______ _____ _____    ______ ____
USER                              x       y       z     vdW  Elec       q    Type
USER                           _______ _______ _______ _____ _____    ______ ____
ROOT
ATOM      1  C   UNL     1     161.063 171.524 175.574 -0.22 +0.03    +0.228 C 
ATOM      2  N   UNL     1     162.431 171.747 175.626 -0.15 -0.01    -0.285 N 
ATOM      3  H   UNL     1     163.023 170.924 175.578 +0.12 -0.02    +0.155 HD
ATOM      4  O   UNL     1     160.197 172.398 175.606 -0.48 -0.15    -0.275 OA
ENDROOT
BRANCH   2   5
ATOM      5  C   UNL     1     163.086 172.981 175.839 -0.22 +0.01    +0.037 A 
ATOM      6  C   UNL     1     163.275 173.404 177.163 -0.20 +0.02    +0.072 A 
ATOM      7  C   UNL     1     163.867 174.645 177.433 -0.14 +0.07    +0.164 A 
ATOM      8  C   UNL     1     164.318 175.447 176.386 -0.06 +0.07    +0.162 A 
ATOM      9  O   UNL     1     164.992 176.621 176.578 +0.00 -0.17    -0.488 OA
ATOM     10  C   UNL     1     164.160 177.608 177.187 +0.01 +0.10    +0.232 C 
ATOM     11  C   UNL     1     164.105 177.441 178.698 -0.03 +0.02    +0.082 C 
ATOM     12  C   UNL     1     163.353 176.178 179.097 -0.11 +0.07    +0.232 C 
ATOM     13  C   UNL     1     164.174 175.015 175.072 -0.11 +0.01    +0.051 A 
ATOM     14  O   UNL     1     164.053 174.981 178.748 -0.54 -0.29    -0.488 OA
ATOM     15  C   UNL     1     163.543 173.800 174.802 -0.15 +0.00    +0.027 A 
ENDBRANCH   2   5
BRANCH   1  16
ATOM     16  C   UNL     1     160.634 170.081 175.359 -0.39 -0.00    +0.173 C 
BRANCH  16  17
ATOM     17  S   UNL     1     160.928 168.975 176.748 -0.61 +0.01    -0.075 S 
BRANCH  17  24
ATOM     18  C   UNL     1     154.032 167.714 179.154 -0.33 -0.06    +0.066 C 
ATOM     19  C   UNL     1     155.358 167.490 178.468 -0.42 -0.03    +0.044 A 
ATOM     20  N   UNL     1     156.206 168.475 178.459 -0.27 +0.14    -0.216 NA
ATOM     21  C   UNL     1     157.401 168.243 177.845 -0.20 -0.13    +0.254 A 
ATOM     22  N   UNL     1     157.711 167.015 177.244 -0.31 +0.09    -0.200 N 
ATOM     23  N   UNL     1     158.971 167.074 176.727 -0.27 +0.03    -0.137 NA
ATOM     24  C   UNL     1     159.348 168.307 177.062 -0.29 -0.06    +0.211 A 
ATOM     25  C   UNL     1     156.785 165.959 177.250 -0.39 -0.02    +0.045 A 
ATOM     26  C   UNL     1     157.159 164.666 176.596 -0.37 -0.03    +0.066 C 
ATOM     27  N   UNL     1     158.427 169.055 177.722 -0.32 +0.07    -0.183 NA
ATOM     28  C   UNL     1     155.595 166.148 177.851 -0.35 -0.02    +0.046 A 
ENDBRANCH  17  24
ENDBRANCH  16  17
ENDBRANCH   1  16
TORSDOF 4
TER
ENDMDL
