MODEL        1
USER    Run = 1
USER
USER    Estimated Free Energy of Binding    =  -6.25 kcal/mol  [=(1)+(2)+(3)-(4)]
USER
USER    (1) Final Intermolecular Energy     =  -7.44 kcal/mol
USER        vdW + Hbond + desolv Energy     =  -7.27 kcal/mol
USER        Electrostatic Energy            =  -0.17 kcal/mol
USER        Moving Ligand-Fixed Receptor    =  -7.44 kcal/mol
USER        Moving Ligand-Moving Receptor   =  +0.00 kcal/mol
USER    (2) Final Total Internal Energy     =  -0.51 kcal/mol
USER    (3) Torsional Free Energy           =  +1.19 kcal/mol
USER    (4) Unbound System's Energy         =  -0.51 kcal/mol
USER
USER
REMARK  Name = Z14488742
REMARK  7 active torsions:
REMARK  status: ('A' for Active; 'I' for Inactive)
REMARK    1  A    between atoms: C_1  and  C_2
REMARK    2  A    between atoms: C_2  and  S_3
REMARK    3  A    between atoms: C_2  and  C_15
REMARK    4  A    between atoms: S_3  and  C_4
REMARK    5  A    between atoms: C_8  and  C_9
REMARK    6  A    between atoms: C_11  and  C_12
REMARK    7  A    between atoms: N_17  and  C_18
REMARK                            x       y       z     vdW  Elec       q    Type
REMARK                         _______ _______ _______ _____ _____    ______ ____
USER                              x       y       z     vdW  Elec       q    Type
USER                           _______ _______ _______ _____ _____    ______ ____
ROOT
ATOM      1  C   UNL     1     161.746 167.911 176.186 -0.43 -0.00    +0.029 C 
ATOM      2  C   UNL     1     160.594 168.745 176.751 -0.44 -0.02    +0.137 C 
ENDROOT
BRANCH   2   3
ATOM      3  C   UNL     1     159.436 167.788 177.121 -0.29 -0.06    +0.230 C 
ATOM      4  N   UNL     1     158.155 168.331 177.075 -0.27 +0.14    -0.285 N 
ATOM      5  H   UNL     1     158.019 169.045 176.367 -0.05 -0.11    +0.155 HD
ATOM      6  O   UNL     1     159.653 166.625 177.471 -0.19 +0.06    -0.274 OA
BRANCH   4   7
ATOM      7  C   UNL     1     157.024 167.571 177.459 -0.45 -0.02    +0.034 A 
ATOM      8  C   UNL     1     156.917 166.245 177.035 -0.43 -0.01    +0.025 A 
ATOM      9  C   UNL     1     155.861 165.445 177.494 -0.31 -0.01    +0.022 A 
ATOM     10  C   UNL     1     154.883 165.988 178.327 -0.32 -0.02    +0.041 A 
ATOM     11 CL   UNL     1     153.602 164.996 178.907 -0.45 +0.04    -0.084 Cl
ATOM     12  C   UNL     1     154.946 167.327 178.700 -0.42 -0.01    +0.022 A 
ATOM     13  C   UNL     1     156.021 168.114 178.274 -0.40 -0.02    +0.025 A 
ENDBRANCH   4   7
ENDBRANCH   2   3
BRANCH   2  14
ATOM     14  S   UNL     1     160.044 169.998 175.541 -0.61 +0.00    -0.072 S 
BRANCH  14  15
ATOM     15  C   UNL     1     161.409 171.091 175.447 -0.22 +0.01    +0.212 A 
ATOM     16  N   UNL     1     162.507 170.723 174.780 -0.24 +0.01    -0.137 NA
ATOM     17  N   UNL     1     163.306 171.809 174.906 -0.14 +0.02    -0.200 N 
ATOM     18  C   UNL     1     162.633 172.798 175.646 -0.08 +0.07    +0.254 A 
ATOM     19  N   UNL     1     163.216 174.007 175.909 -0.48 -0.14    -0.216 NA
ATOM     20  C   UNL     1     164.416 174.197 175.440 -0.13 +0.00    +0.044 A 
ATOM     21  C   UNL     1     165.205 173.193 174.652 -0.08 -0.01    +0.046 A 
ATOM     22  C   UNL     1     165.110 175.513 175.696 -0.12 +0.01    +0.066 C 
ATOM     23  C   UNL     1     164.602 172.015 174.413 -0.16 -0.01    +0.045 A 
ATOM     24  C   UNL     1     165.264 170.922 173.637 -0.29 -0.03    +0.066 C 
ATOM     25  N   UNL     1     161.445 172.344 175.983 -0.28 -0.07    -0.183 NA
ENDBRANCH  14  15
ENDBRANCH   2  14
TORSDOF 4
TER
ENDMDL
