MODEL        1
USER    Run = 1
USER
USER    Estimated Free Energy of Binding    =  -4.78 kcal/mol  [=(1)+(2)+(3)-(4)]
USER
USER    (1) Final Intermolecular Energy     =  -6.27 kcal/mol
USER        vdW + Hbond + desolv Energy     =  -6.25 kcal/mol
USER        Electrostatic Energy            =  -0.02 kcal/mol
USER        Moving Ligand-Fixed Receptor    =  -6.27 kcal/mol
USER        Moving Ligand-Moving Receptor   =  +0.00 kcal/mol
USER    (2) Final Total Internal Energy     =  -1.95 kcal/mol
USER    (3) Torsional Free Energy           =  +1.49 kcal/mol
USER    (4) Unbound System's Energy         =  -1.95 kcal/mol
USER
USER
REMARK  Name = Z14491337
REMARK  8 active torsions:
REMARK  status: ('A' for Active; 'I' for Inactive)
REMARK    1  A    between atoms: C_1  and  O_2
REMARK    2  A    between atoms: O_2  and  C_3
REMARK    3  A    between atoms: C_8  and  N_9
REMARK    4  A    between atoms: C_10  and  C_12
REMARK    5  A    between atoms: C_12  and  S_13
REMARK    6  A    between atoms: S_13  and  C_14
REMARK    7  A    between atoms: C_18  and  C_19
REMARK    8  A    between atoms: C_21  and  C_22
REMARK                            x       y       z     vdW  Elec       q    Type
REMARK                         _______ _______ _______ _____ _____    ______ ____
USER                              x       y       z     vdW  Elec       q    Type
USER                           _______ _______ _______ _____ _____    ______ ____
ROOT
ATOM      1  C   UNL     1     152.842 166.027 180.853 -0.27 -0.10    +0.173 C 
ENDROOT
BRANCH   1   4
ATOM      2  N   UNL     1     152.794 164.271 179.106 -0.15 +0.10    -0.282 N 
ATOM      3  H   UNL     1     153.698 164.650 178.840 +0.08 -0.06    +0.155 HD
ATOM      4  C   UNL     1     152.072 164.942 180.092 -0.20 -0.08    +0.228 C 
ATOM      5  O   UNL     1     150.904 164.708 180.401 -0.26 +0.05    -0.275 OA
BRANCH   2   7
ATOM      6  C   UNL     1     153.213 162.211 177.833 -0.18 -0.05    +0.141 A 
ATOM      7  C   UNL     1     152.320 163.218 178.270 -0.25 -0.02    +0.076 A 
ATOM      8  C   UNL     1     150.987 163.148 177.850 -0.22 -0.00    +0.027 A 
ATOM      9  C   UNL     1     150.543 162.125 177.007 -0.18 -0.00    +0.002 A 
ATOM     10  C   UNL     1     151.419 161.130 176.597 -0.15 -0.00    +0.004 A 
ATOM     11  C   UNL     1     152.742 161.161 177.025 -0.16 -0.02    +0.047 A 
BRANCH   6  13
ATOM     12  C   UNL     1     155.352 161.201 177.826 -0.22 -0.13    +0.277 C 
ATOM     13  O   UNL     1     154.536 162.311 178.215 -0.09 +0.21    -0.493 OA
ENDBRANCH   6  13
ENDBRANCH   2   7
ENDBRANCH   1   4
BRANCH   1  14
ATOM     14  S   UNL     1     152.817 167.566 179.916 -0.39 +0.07    -0.075 S 
BRANCH  14  15
ATOM     15  C   UNL     1     154.358 167.612 179.110 -0.23 -0.18    +0.211 A 
ATOM     16  N   UNL     1     154.806 166.476 178.577 -0.34 +0.08    -0.137 NA
ATOM     17  N   UNL     1     155.992 166.839 178.056 -0.33 +0.10    -0.200 N 
ATOM     18  C   UNL     1     156.223 168.197 178.301 -0.16 -0.16    +0.254 A 
ATOM     19  N   UNL     1     157.370 168.816 177.871 -0.34 +0.12    -0.216 NA
ATOM     20  C   UNL     1     158.226 168.073 177.227 -0.40 -0.02    +0.044 A 
ATOM     21  C   UNL     1     158.050 166.615 176.928 -0.32 -0.02    +0.046 A 
ATOM     22  C   UNL     1     159.510 168.688 176.717 -0.49 -0.02    +0.066 C 
ATOM     23  C   UNL     1     156.915 166.049 177.365 -0.40 -0.02    +0.045 A 
ATOM     24  C   UNL     1     156.581 164.607 177.149 -0.33 -0.03    +0.066 C 
ATOM     25  N   UNL     1     155.191 168.685 178.971 -0.28 +0.16    -0.183 NA
ENDBRANCH  14  15
ENDBRANCH   1  14
TORSDOF 5
TER
ENDMDL
