MODEL        1
USER    Run = 1
USER
USER    Estimated Free Energy of Binding    =  -4.84 kcal/mol  [=(1)+(2)+(3)-(4)]
USER
USER    (1) Final Intermolecular Energy     =  -5.73 kcal/mol
USER        vdW + Hbond + desolv Energy     =  -5.72 kcal/mol
USER        Electrostatic Energy            =  -0.01 kcal/mol
USER        Moving Ligand-Fixed Receptor    =  -5.73 kcal/mol
USER        Moving Ligand-Moving Receptor   =  +0.00 kcal/mol
USER    (2) Final Total Internal Energy     =  -1.41 kcal/mol
USER    (3) Torsional Free Energy           =  +0.89 kcal/mol
USER    (4) Unbound System's Energy         =  -1.41 kcal/mol
USER
USER
REMARK  Name = Z14480091
REMARK  5 active torsions:
REMARK  status: ('A' for Active; 'I' for Inactive)
REMARK    1  A    between atoms: C_1  and  C_2
REMARK    2  A    between atoms: C_2  and  C_3
REMARK    3  A    between atoms: N_7  and  C_8
REMARK    4  A    between atoms: C_8  and  C_9
REMARK    5  A    between atoms: N_11  and  C_12
REMARK                            x       y       z     vdW  Elec       q    Type
REMARK                         _______ _______ _______ _____ _____    ______ ____
USER                              x       y       z     vdW  Elec       q    Type
USER                           _______ _______ _______ _____ _____    ______ ____
ROOT
ATOM      1  C   UNL     1     161.055 169.825 176.609 -0.29 -0.01    +0.214 C 
ENDROOT
BRANCH   1   6
ATOM      2  C   UNL     1     164.881 169.341 173.636 -0.37 -0.01    +0.041 C 
ATOM      3  C   UNL     1     163.435 168.906 173.829 -0.37 -0.02    +0.107 C 
ATOM      4  C   UNL     1     162.616 169.925 174.652 -0.16 -0.03    +0.246 C 
ATOM      5  O   UNL     1     162.583 171.128 174.450 -0.15 +0.02    -0.273 OA
ATOM      6  N   UNL     1     161.923 169.239 175.611 -0.21 +0.02    -0.215 N 
ATOM      7  C   UNL     1     162.305 167.934 175.620 -0.18 -0.03    +0.310 C 
ATOM      8  O   UNL     1     161.852 167.056 176.340 -0.32 +0.02    -0.252 OA
ATOM      9  N   UNL     1     163.303 167.754 174.693 -0.23 +0.06    -0.285 N 
ATOM     10  H   UNL     1     163.678 166.834 174.507 +0.10 -0.04    +0.151 HD
ATOM     11  C   UNL     1     162.743 168.633 172.496 -0.40 -0.01    +0.041 C 
ENDBRANCH   1   6
BRANCH   1  12
ATOM     12  C   UNL     1     159.619 169.306 176.544 -0.28 -0.04    +0.235 C 
ATOM     13  N   UNL     1     159.366 168.202 177.351 -0.27 +0.08    -0.284 N 
ATOM     14  H   UNL     1     160.160 167.600 177.554 +0.11 -0.04    +0.155 HD
ATOM     15  O   UNL     1     158.794 169.828 175.796 -0.28 +0.07    -0.274 OA
BRANCH  13  16
ATOM     16  C   UNL     1     158.076 167.631 177.440 -0.34 -0.01    +0.033 A 
ATOM     17  C   UNL     1     157.845 166.281 177.144 -0.37 -0.01    +0.023 A 
ATOM     18  C   UNL     1     156.573 165.728 177.310 -0.41 -0.00    +0.002 A 
ATOM     19  C   UNL     1     155.533 166.515 177.801 -0.39 -0.00    +0.000 A 
ATOM     20  C   UNL     1     155.751 167.865 178.068 -0.47 -0.00    +0.002 A 
ATOM     21  C   UNL     1     157.012 168.432 177.854 -0.44 -0.01    +0.023 A 
ENDBRANCH  13  16
ENDBRANCH   1  12
TORSDOF 3
TER
ENDMDL
