MODEL        1
USER    Run = 1
USER
USER    Estimated Free Energy of Binding    =  -5.52 kcal/mol  [=(1)+(2)+(3)-(4)]
USER
USER    (1) Final Intermolecular Energy     =  -6.71 kcal/mol
USER        vdW + Hbond + desolv Energy     =  -6.74 kcal/mol
USER        Electrostatic Energy            =  +0.03 kcal/mol
USER        Moving Ligand-Fixed Receptor    =  -6.71 kcal/mol
USER        Moving Ligand-Moving Receptor   =  +0.00 kcal/mol
USER    (2) Final Total Internal Energy     =  -0.51 kcal/mol
USER    (3) Torsional Free Energy           =  +1.19 kcal/mol
USER    (4) Unbound System's Energy         =  -0.51 kcal/mol
USER
USER
REMARK  Name = Z14488667
REMARK  7 active torsions:
REMARK  status: ('A' for Active; 'I' for Inactive)
REMARK    1  A    between atoms: C_1  and  C_2
REMARK    2  A    between atoms: C_2  and  S_3
REMARK    3  A    between atoms: C_2  and  C_15
REMARK    4  A    between atoms: S_3  and  C_4
REMARK    5  A    between atoms: C_8  and  C_9
REMARK    6  A    between atoms: C_11  and  C_12
REMARK    7  A    between atoms: N_17  and  C_18
REMARK                            x       y       z     vdW  Elec       q    Type
REMARK                         _______ _______ _______ _____ _____    ______ ____
USER                              x       y       z     vdW  Elec       q    Type
USER                           _______ _______ _______ _____ _____    ______ ____
ROOT
ATOM      1  C   UNL     1     158.942 168.329 177.012 -0.27 -0.07    +0.212 A 
ATOM      2  N   UNL     1     158.670 167.055 176.739 -0.31 +0.04    -0.137 NA
ATOM      3  N   UNL     1     157.452 166.901 177.311 -0.32 +0.10    -0.200 N 
ATOM      4  C   UNL     1     157.058 168.105 177.913 -0.21 -0.14    +0.254 A 
ATOM      5  N   UNL     1     155.873 168.219 178.584 -0.34 +0.14    -0.216 NA
ATOM      6  C   UNL     1     155.127 167.154 178.634 -0.42 -0.03    +0.044 A 
ATOM      7  C   UNL     1     155.472 165.831 178.020 -0.32 -0.02    +0.046 A 
ATOM      8  C   UNL     1     153.809 167.219 179.365 -0.37 -0.06    +0.066 C 
ATOM      9  C   UNL     1     156.646 165.760 177.370 -0.38 -0.02    +0.045 A 
ATOM     10  C   UNL     1     157.141 164.510 176.711 -0.38 -0.03    +0.066 C 
ATOM     11  N   UNL     1     158.001 169.003 177.725 -0.36 +0.09    -0.183 NA
ENDROOT
BRANCH   1  12
ATOM     12  S   UNL     1     160.478 169.021 176.572 -0.64 +0.01    -0.072 S 
BRANCH  12  14
ATOM     13  C   UNL     1     161.833 166.880 177.705 -0.47 -0.00    +0.029 C 
ATOM     14  C   UNL     1     161.500 167.527 176.365 -0.32 -0.01    +0.137 C 
BRANCH  14  15
ATOM     15  C   UNL     1     162.758 167.805 175.539 -0.25 -0.03    +0.226 C 
ATOM     16  N   UNL     1     162.518 168.360 174.291 -0.10 +0.04    -0.311 N 
ATOM     17  H   UNL     1     161.625 168.819 174.145 +0.11 +0.00    +0.149 HD
ATOM     18  O   UNL     1     163.885 167.487 175.916 -0.23 +0.07    -0.275 OA
BRANCH  16  19
ATOM     19  C   UNL     1     163.591 168.656 173.397 -0.41 -0.02    +0.073 C 
ATOM     20  C   UNL     1     164.798 169.435 173.841 -0.40 -0.01    +0.024 C 
ATOM     21  C   UNL     1     163.801 170.067 172.914 -0.36 -0.01    +0.024 C 
ENDBRANCH  16  19
ENDBRANCH  14  15
ENDBRANCH  12  14
ENDBRANCH   1  12
TORSDOF 4
TER
ENDMDL
