MODEL        1
USER    Run = 1
USER
USER    Estimated Free Energy of Binding    =  -3.92 kcal/mol  [=(1)+(2)+(3)-(4)]
USER
USER    (1) Final Intermolecular Energy     =  -5.11 kcal/mol
USER        vdW + Hbond + desolv Energy     =  -4.88 kcal/mol
USER        Electrostatic Energy            =  -0.23 kcal/mol
USER        Moving Ligand-Fixed Receptor    =  -5.11 kcal/mol
USER        Moving Ligand-Moving Receptor   =  +0.00 kcal/mol
USER    (2) Final Total Internal Energy     =  -2.01 kcal/mol
USER    (3) Torsional Free Energy           =  +1.19 kcal/mol
USER    (4) Unbound System's Energy         =  -2.01 kcal/mol
USER
USER
REMARK  Name = Z14490640
REMARK  6 active torsions:
REMARK  status: ('A' for Active; 'I' for Inactive)
REMARK    1  A    between atoms: C_1  and  C_2
REMARK    2  A    between atoms: C_4  and  C_5
REMARK    3  A    between atoms: C_8  and  S_9
REMARK    4  A    between atoms: S_9  and  C_10
REMARK    5  A    between atoms: C_10  and  C_11
REMARK    6  A    between atoms: N_13  and  C_14
REMARK                            x       y       z     vdW  Elec       q    Type
REMARK                         _______ _______ _______ _____ _____    ______ ____
USER                              x       y       z     vdW  Elec       q    Type
USER                           _______ _______ _______ _____ _____    ______ ____
ROOT
ATOM      1  S   UNL     1     165.413 176.199 174.701 -0.13 +0.00    -0.075 S 
ENDROOT
BRANCH   1   8
ATOM      2  C   UNL     1     162.870 172.795 168.565 -0.29 -0.03    +0.066 C 
ATOM      3  C   UNL     1     163.596 173.066 169.861 -0.22 -0.01    +0.044 A 
ATOM      4  N   UNL     1     163.432 174.228 170.428 -0.13 +0.05    -0.216 NA
ATOM      5  C   UNL     1     164.109 174.441 171.596 +0.01 -0.06    +0.254 A 
ATOM      6  N   UNL     1     164.937 173.458 172.156 -0.09 +0.03    -0.200 N 
ATOM      7  N   UNL     1     165.488 173.932 173.296 -0.06 +0.03    -0.137 NA
ATOM      8  C   UNL     1     164.973 175.158 173.374 -0.01 -0.04    +0.211 A 
ATOM      9  C   UNL     1     165.109 172.213 171.543 -0.20 -0.00    +0.045 A 
ATOM     10  C   UNL     1     166.015 171.215 172.198 -0.18 -0.02    +0.066 C 
ATOM     11  N   UNL     1     164.136 175.513 172.362 -0.09 +0.07    -0.183 NA
ATOM     12  C   UNL     1     164.460 171.963 170.392 -0.25 -0.01    +0.046 A 
ENDBRANCH   1   8
BRANCH   1  13
ATOM     13  C   UNL     1     165.327 175.050 176.099 -0.08 +0.02    +0.173 C 
BRANCH  13  14
ATOM     14  C   UNL     1     164.058 174.207 176.023 -0.11 +0.06    +0.228 C 
ATOM     15  N   UNL     1     164.228 172.975 175.403 -0.06 +0.01    -0.285 N 
ATOM     16  H   UNL     1     165.109 172.841 174.918 +0.10 -0.03    +0.155 HD
ATOM     17  O   UNL     1     163.013 174.619 176.519 -0.63 -0.32    -0.275 OA
BRANCH  15  18
ATOM     18  C   UNL     1     163.250 171.969 175.228 -0.16 -0.00    +0.035 A 
ATOM     19  C   UNL     1     163.543 170.916 174.350 -0.17 -0.01    +0.038 A 
ATOM     20  C   UNL     1     162.606 169.902 174.128 -0.31 -0.00    +0.020 A 
ATOM     21 BR   UNL     1     163.002 168.504 172.916 -0.71 +0.01    -0.050 Br
ATOM     22  C   UNL     1     161.377 169.912 174.781 -0.38 -0.00    +0.015 A 
ATOM     23  C   UNL     1     161.085 170.946 175.667 -0.42 +0.00    +0.003 A 
ATOM     24  C   UNL     1     162.017 171.966 175.888 -0.32 +0.00    +0.023 A 
ENDBRANCH  15  18
ENDBRANCH  13  14
ENDBRANCH   1  13
TORSDOF 4
TER
ENDMDL
