MODEL        1
USER    Run = 1
USER
USER    Estimated Free Energy of Binding    =  -3.58 kcal/mol  [=(1)+(2)+(3)-(4)]
USER
USER    (1) Final Intermolecular Energy     =  -5.07 kcal/mol
USER        vdW + Hbond + desolv Energy     =  -5.01 kcal/mol
USER        Electrostatic Energy            =  -0.07 kcal/mol
USER        Moving Ligand-Fixed Receptor    =  -5.07 kcal/mol
USER        Moving Ligand-Moving Receptor   =  +0.00 kcal/mol
USER    (2) Final Total Internal Energy     =  -0.88 kcal/mol
USER    (3) Torsional Free Energy           =  +1.49 kcal/mol
USER    (4) Unbound System's Energy         =  -0.88 kcal/mol
USER
USER
REMARK  Name = Z14504886
REMARK  5 active torsions:
REMARK  status: ('A' for Active; 'I' for Inactive)
REMARK    1  A    between atoms: C_2  and  C_5
REMARK    2  A    between atoms: N_11  and  C_12
REMARK    3  A    between atoms: C_12  and  C_13
REMARK    4  A    between atoms: N_15  and  C_16
REMARK    5  A    between atoms: C_16  and  C_17
REMARK                            x       y       z     vdW  Elec       q    Type
REMARK                         _______ _______ _______ _____ _____    ______ ____
USER                              x       y       z     vdW  Elec       q    Type
USER                           _______ _______ _______ _____ _____    ______ ____
ROOT
ATOM      1  C   UNL     1     163.552 168.557 173.830 -0.42 -0.02    +0.072 C 
ATOM      2  C   UNL     1     162.546 169.029 174.590 -0.33 -0.01    +0.102 C 
ATOM      3  N   UNL     1     162.427 170.380 174.887 -0.13 +0.03    -0.305 N 
ATOM      4  C   UNL     1     163.403 171.312 174.484 -0.04 -0.04    +0.270 C 
ATOM      5  O   UNL     1     163.424 172.477 174.867 -0.16 +0.01    -0.266 OA
ATOM      6  C   UNL     1     164.386 170.807 173.473 -0.25 -0.03    +0.106 C 
ATOM      7 CL   UNL     1     165.365 171.955 172.639 -0.36 +0.02    -0.078 Cl
ATOM      8  C   UNL     1     164.451 169.506 173.193 -0.39 -0.01    +0.039 C 
ENDROOT
BRANCH   1  10
ATOM      9  F   UNL     1     163.064 166.310 174.468 -0.09 +0.04    -0.166 F 
ATOM     10  C   UNL     1     163.763 167.086 173.599 -0.14 -0.11    +0.419 C 
ATOM     11  F   UNL     1     163.370 166.724 172.351 -0.11 +0.05    -0.166 F 
ATOM     12  F   UNL     1     165.066 166.739 173.722 -0.07 +0.06    -0.166 F 
ENDBRANCH   1  10
BRANCH   3  13
ATOM     13  C   UNL     1     161.314 170.831 175.739 -0.30 +0.00    +0.220 C 
BRANCH  13  14
ATOM     14  C   UNL     1     159.936 170.182 175.464 -0.30 -0.01    +0.233 C 
ATOM     15  N   UNL     1     159.475 169.178 176.276 -0.21 +0.06    -0.310 N 
ATOM     16  H   UNL     1     158.583 168.776 176.009 +0.01 -0.06    +0.149 HD
ATOM     17  O   UNL     1     159.266 170.514 174.486 -0.31 -0.01    -0.274 OA
BRANCH  15  18
ATOM     18  C   UNL     1     160.114 168.745 177.486 -0.46 -0.03    +0.131 C 
BRANCH  18  19
ATOM     19  C   UNL     1     160.634 167.356 177.396 -0.45 +0.00    -0.016 C 
ATOM     20  C   UNL     1     161.937 167.084 177.234 -0.50 -0.00    +0.005 C 
ENDBRANCH  18  19
ENDBRANCH  15  18
ENDBRANCH  13  14
ENDBRANCH   3  13
TORSDOF 5
TER
ENDMDL
