MODEL        1
USER    Run = 1
USER
USER    Estimated Free Energy of Binding    =  -3.27 kcal/mol  [=(1)+(2)+(3)-(4)]
USER
USER    (1) Final Intermolecular Energy     =  -4.76 kcal/mol
USER        vdW + Hbond + desolv Energy     =  -4.79 kcal/mol
USER        Electrostatic Energy            =  +0.03 kcal/mol
USER        Moving Ligand-Fixed Receptor    =  -4.76 kcal/mol
USER        Moving Ligand-Moving Receptor   =  +0.00 kcal/mol
USER    (2) Final Total Internal Energy     =  -2.16 kcal/mol
USER    (3) Torsional Free Energy           =  +1.49 kcal/mol
USER    (4) Unbound System's Energy         =  -2.16 kcal/mol
USER
USER
REMARK  Name = Z14507784
REMARK  5 active torsions:
REMARK  status: ('A' for Active; 'I' for Inactive)
REMARK    1  A    between atoms: C_2  and  C_5
REMARK    2  A    between atoms: N_11  and  C_12
REMARK    3  A    between atoms: C_12  and  C_13
REMARK    4  A    between atoms: N_15  and  C_16
REMARK    5  A    between atoms: C_16  and  C_17
REMARK                            x       y       z     vdW  Elec       q    Type
REMARK                         _______ _______ _______ _____ _____    ______ ____
USER                              x       y       z     vdW  Elec       q    Type
USER                           _______ _______ _______ _____ _____    ______ ____
ROOT
ATOM      1  C   UNL     1     162.889 168.178 174.518 -0.36 -0.01    +0.072 C 
ATOM      2  C   UNL     1     162.741 167.430 175.627 -0.37 -0.02    +0.102 C 
ATOM      3  N   UNL     1     161.887 167.809 176.656 -0.23 +0.03    -0.305 N 
ATOM      4  C   UNL     1     161.093 168.956 176.591 -0.28 -0.03    +0.270 C 
ATOM      5  O   UNL     1     160.306 169.273 177.481 -0.41 +0.06    -0.266 OA
ATOM      6  C   UNL     1     161.276 169.793 175.359 -0.42 -0.00    +0.106 C 
ATOM      7 CL   UNL     1     160.389 171.261 175.225 -0.39 -0.01    -0.078 Cl
ATOM      8  C   UNL     1     162.126 169.408 174.400 -0.39 -0.00    +0.039 C 
ENDROOT
BRANCH   1  10
ATOM      9  F   UNL     1     165.138 168.052 173.725 -0.13 +0.05    -0.166 F 
ATOM     10  C   UNL     1     163.841 167.790 173.418 -0.12 -0.10    +0.419 C 
ATOM     11  F   UNL     1     163.769 166.462 173.144 -0.16 +0.05    -0.166 F 
ATOM     12  F   UNL     1     163.573 168.446 172.262 -0.11 +0.04    -0.166 F 
ENDBRANCH   1  10
BRANCH   3  13
ATOM     13  C   UNL     1     161.824 167.008 177.877 -0.25 -0.04    +0.220 C 
BRANCH  13  14
ATOM     14  C   UNL     1     160.703 165.972 177.848 +0.41 -0.04    +0.233 C 
ATOM     15  N   UNL     1     159.465 166.444 177.476 +0.03 +0.07    -0.307 N 
ATOM     16  H   UNL     1     159.348 167.409 177.179 +0.11 -0.04    +0.149 HD
ATOM     17  O   UNL     1     160.911 164.788 178.110 -0.16 +0.06    -0.274 OA
BRANCH  15  18
ATOM     18  C   UNL     1     158.309 165.577 177.532 -0.11 -0.06    +0.178 C 
BRANCH  18  19
ATOM     19  C   UNL     1     157.072 166.352 177.789 -0.30 -0.05    +0.122 A 
ATOM     20  O   UNL     1     157.180 167.714 177.800 -0.19 +0.24    -0.466 OA
ATOM     21  C   UNL     1     155.954 168.209 178.112 -0.23 -0.13    +0.195 A 
ATOM     22  C   UNL     1     155.055 167.186 178.298 -0.39 -0.03    +0.041 A 
ATOM     23  C   UNL     1     155.775 165.985 178.090 -0.36 -0.02    +0.046 A 
ENDBRANCH  18  19
ENDBRANCH  15  18
ENDBRANCH  13  14
ENDBRANCH   3  13
TORSDOF 5
TER
ENDMDL
