MODEL        1
USER    Run = 1
USER
USER    Estimated Free Energy of Binding    =  -4.72 kcal/mol  [=(1)+(2)+(3)-(4)]
USER
USER    (1) Final Intermolecular Energy     =  -5.91 kcal/mol
USER        vdW + Hbond + desolv Energy     =  -5.93 kcal/mol
USER        Electrostatic Energy            =  +0.02 kcal/mol
USER        Moving Ligand-Fixed Receptor    =  -5.91 kcal/mol
USER        Moving Ligand-Moving Receptor   =  +0.00 kcal/mol
USER    (2) Final Total Internal Energy     =  -1.20 kcal/mol
USER    (3) Torsional Free Energy           =  +1.19 kcal/mol
USER    (4) Unbound System's Energy         =  -1.20 kcal/mol
USER
USER
REMARK  Name = Z14503443
REMARK  5 active torsions:
REMARK  status: ('A' for Active; 'I' for Inactive)
REMARK    1  A    between atoms: C_1  and  C_2
REMARK    2  A    between atoms: C_5  and  N_6
REMARK    3  A    between atoms: C_7  and  C_9
REMARK    4  A    between atoms: C_9  and  N_10
REMARK    5  A    between atoms: C_12  and  C_18
REMARK                            x       y       z     vdW  Elec       q    Type
REMARK                         _______ _______ _______ _____ _____    ______ ____
USER                              x       y       z     vdW  Elec       q    Type
USER                           _______ _______ _______ _____ _____    ______ ____
ROOT
ATOM      1  C   UNL     1     161.721 170.568 176.051 -0.09 -0.00    +0.221 C 
ENDROOT
BRANCH   1   2
ATOM      2  N   UNL     1     162.531 170.007 174.973 -0.09 +0.04    -0.305 N 
ATOM      3  C   UNL     1     162.562 168.615 174.848 -0.20 -0.03    +0.270 C 
ATOM      4  O   UNL     1     161.860 167.877 175.541 -0.26 +0.02    -0.266 OA
ATOM      5  C   UNL     1     163.509 168.089 173.812 -0.40 -0.02    +0.106 C 
ATOM      6 CL   UNL     1     163.776 166.392 173.734 -0.47 +0.02    -0.078 Cl
ATOM      7  C   UNL     1     164.148 168.936 172.994 -0.38 -0.01    +0.039 C 
ATOM      8  C   UNL     1     163.930 170.373 173.074 -0.29 -0.02    +0.072 C 
ATOM      9  C   UNL     1     163.162 170.849 174.069 -0.11 -0.02    +0.102 C 
BRANCH   8  10
ATOM     10  C   UNL     1     164.578 171.273 172.056 -0.01 -0.09    +0.419 C 
ATOM     11  F   UNL     1     164.017 171.126 170.829 -0.05 +0.04    -0.166 F 
ATOM     12  F   UNL     1     165.900 170.999 171.921 -0.09 +0.03    -0.166 F 
ATOM     13  F   UNL     1     164.480 172.588 172.376 -0.01 +0.03    -0.166 F 
ENDBRANCH   8  10
ENDBRANCH   1   2
BRANCH   1  16
ATOM     14  N   UNL     1     160.082 169.000 176.953 -0.29 +0.05    -0.284 N 
ATOM     15  H   UNL     1     160.911 168.615 177.409 +0.08 -0.03    +0.155 HD
ATOM     16  C   UNL     1     160.308 169.995 176.012 -0.28 -0.01    +0.237 C 
ATOM     17  O   UNL     1     159.523 170.361 175.140 -0.42 +0.00    -0.274 OA
BRANCH  14  23
ATOM     18  C   UNL     1     155.248 166.142 178.069 -0.38 -0.02    +0.046 C 
ATOM     19  C   UNL     1     156.481 166.897 177.679 -0.46 +0.01    -0.015 A 
ATOM     20  C   UNL     1     156.627 168.245 178.011 -0.33 -0.08    +0.128 A 
ATOM     21  F   UNL     1     155.630 168.883 178.644 -0.04 +0.16    -0.205 F 
ATOM     22  C   UNL     1     157.800 168.946 177.729 -0.34 -0.03    +0.062 A 
ATOM     23  C   UNL     1     158.873 168.289 177.123 -0.44 -0.01    +0.036 A 
ATOM     24  C   UNL     1     158.712 166.956 176.732 -0.17 -0.01    +0.024 A 
ATOM     25  C   UNL     1     157.531 166.262 177.012 -0.42 -0.00    +0.008 A 
ENDBRANCH  14  23
ENDBRANCH   1  16
TORSDOF 4
TER
ENDMDL
