MODEL        1
USER    Run = 1
USER
USER    Estimated Free Energy of Binding    =  -4.47 kcal/mol  [=(1)+(2)+(3)-(4)]
USER
USER    (1) Final Intermolecular Energy     =  -5.67 kcal/mol
USER        vdW + Hbond + desolv Energy     =  -5.65 kcal/mol
USER        Electrostatic Energy            =  -0.02 kcal/mol
USER        Moving Ligand-Fixed Receptor    =  -5.67 kcal/mol
USER        Moving Ligand-Moving Receptor   =  +0.00 kcal/mol
USER    (2) Final Total Internal Energy     =  -0.67 kcal/mol
USER    (3) Torsional Free Energy           =  +1.19 kcal/mol
USER    (4) Unbound System's Energy         =  -0.67 kcal/mol
USER
USER
REMARK  Name = Z14504763
REMARK  6 active torsions:
REMARK  status: ('A' for Active; 'I' for Inactive)
REMARK    1  A    between atoms: C_1  and  C_2
REMARK    2  A    between atoms: C_2  and  C_3
REMARK    3  A    between atoms: C_2  and  N_4
REMARK    4  A    between atoms: C_5  and  C_7
REMARK    5  A    between atoms: C_7  and  N_8
REMARK    6  A    between atoms: C_10  and  C_16
REMARK                            x       y       z     vdW  Elec       q    Type
REMARK                         _______ _______ _______ _____ _____    ______ ____
USER                              x       y       z     vdW  Elec       q    Type
USER                           _______ _______ _______ _____ _____    ______ ____
ROOT
ATOM      1  N   UNL     1     155.886 167.239 178.291 -0.26 +0.17    -0.305 N 
ATOM      2  C   UNL     1     156.892 168.156 177.975 -0.26 -0.15    +0.270 C 
ATOM      3  O   UNL     1     156.798 169.356 178.226 -0.23 +0.18    -0.266 OA
ATOM      4  C   UNL     1     158.088 167.581 177.277 -0.38 -0.05    +0.106 C 
ATOM      5 CL   UNL     1     159.417 168.617 176.938 -0.71 +0.02    -0.078 Cl
ATOM      6  C   UNL     1     158.108 166.286 176.929 -0.32 -0.01    +0.039 C 
ATOM      7  C   UNL     1     156.986 165.408 177.221 -0.41 -0.03    +0.072 C 
ATOM      8  C   UNL     1     155.933 165.912 177.891 -0.38 -0.05    +0.102 C 
ENDROOT
BRANCH   7   9
ATOM      9  C   UNL     1     157.035 163.969 176.787 -0.08 -0.22    +0.419 C 
ATOM     10  F   UNL     1     158.157 163.351 177.233 -0.08 +0.07    -0.166 F 
ATOM     11  F   UNL     1     157.033 163.859 175.435 -0.12 +0.15    -0.166 F 
ATOM     12  F   UNL     1     155.981 163.244 177.240 -0.05 +0.08    -0.166 F 
ENDBRANCH   7   9
BRANCH   1  13
ATOM     13  C   UNL     1     154.713 167.720 179.028 -0.31 -0.18    +0.220 C 
BRANCH  13  16
ATOM     14  N   UNL     1     152.828 166.159 179.197 -0.12 +0.21    -0.311 N 
ATOM     15  H   UNL     1     152.431 166.728 178.450 -0.32 -0.18    +0.149 HD
ATOM     16  C   UNL     1     154.006 166.589 179.771 -0.28 -0.16    +0.233 C 
ATOM     17  O   UNL     1     154.450 166.134 180.824 -0.30 +0.17    -0.274 OA
BRANCH  14  19
ATOM     18  C   UNL     1     151.219 165.678 180.993 -0.38 -0.01    +0.027 C 
ATOM     19  C   UNL     1     152.004 165.125 179.806 -0.32 -0.03    +0.067 C 
ATOM     20  C   UNL     1     151.067 164.522 178.765 -0.32 -0.01    +0.027 C 
ENDBRANCH  14  19
ENDBRANCH  13  16
ENDBRANCH   1  13
TORSDOF 4
TER
ENDMDL
