MODEL        1
USER    Run = 1
USER
USER    Estimated Free Energy of Binding    =  -4.48 kcal/mol  [=(1)+(2)+(3)-(4)]
USER
USER    (1) Final Intermolecular Energy     =  -5.67 kcal/mol
USER        vdW + Hbond + desolv Energy     =  -5.56 kcal/mol
USER        Electrostatic Energy            =  -0.11 kcal/mol
USER        Moving Ligand-Fixed Receptor    =  -5.67 kcal/mol
USER        Moving Ligand-Moving Receptor   =  +0.00 kcal/mol
USER    (2) Final Total Internal Energy     =  -0.95 kcal/mol
USER    (3) Torsional Free Energy           =  +1.19 kcal/mol
USER    (4) Unbound System's Energy         =  -0.95 kcal/mol
USER
USER
REMARK  Name = Z14507678
REMARK  5 active torsions:
REMARK  status: ('A' for Active; 'I' for Inactive)
REMARK    1  A    between atoms: C_1  and  C_2
REMARK    2  A    between atoms: C_8  and  N_9
REMARK    3  A    between atoms: C_10  and  C_12
REMARK    4  A    between atoms: C_12  and  N_13
REMARK    5  A    between atoms: C_15  and  C_21
REMARK                            x       y       z     vdW  Elec       q    Type
REMARK                         _______ _______ _______ _____ _____    ______ ____
USER                              x       y       z     vdW  Elec       q    Type
USER                           _______ _______ _______ _____ _____    ______ ____
ROOT
ATOM      1  C   UNL     1     164.839 169.951 172.721 -0.19 -0.07    +0.221 C 
ENDROOT
BRANCH   1   2
ATOM      2  N   UNL     1     164.824 171.354 173.137 -0.09 +0.09    -0.305 N 
ATOM      3  C   UNL     1     165.177 172.308 172.179 -0.08 -0.04    +0.270 C 
ATOM      4  O   UNL     1     165.407 172.009 171.007 -0.22 -0.01    -0.266 OA
ATOM      5  C   UNL     1     165.260 173.717 172.681 -0.11 -0.02    +0.106 C 
ATOM      6 CL   UNL     1     165.883 174.925 171.629 -0.27 +0.01    -0.078 Cl
ATOM      7  C   UNL     1     164.872 174.009 173.929 -0.14 -0.01    +0.039 C 
ATOM      8  C   UNL     1     164.354 172.982 174.821 -0.18 -0.01    +0.072 C 
ATOM      9  C   UNL     1     164.378 171.701 174.405 -0.19 -0.02    +0.102 C 
BRANCH   8  10
ATOM     10  C   UNL     1     163.816 173.382 176.169 -0.01 +0.07    +0.419 C 
ATOM     11  F   UNL     1     164.749 173.240 177.143 -0.08 +0.00    -0.166 F 
ATOM     12  F   UNL     1     162.750 172.624 176.526 -0.09 -0.03    -0.166 F 
ATOM     13  F   UNL     1     163.404 174.677 176.209 -0.02 -0.14    -0.166 F 
ENDBRANCH   8  10
ENDBRANCH   1   2
BRANCH   1  16
ATOM     14  N   UNL     1     162.993 169.157 174.122 -0.17 +0.05    -0.284 N 
ATOM     15  H   UNL     1     162.522 169.942 173.676 +0.10 -0.02    +0.155 HD
ATOM     16  C   UNL     1     164.359 169.057 173.861 -0.27 -0.07    +0.237 C 
ATOM     17  O   UNL     1     165.182 168.411 174.504 -0.38 +0.10    -0.274 OA
BRANCH  14  20
ATOM     18  C   UNL     1     160.372 170.125 174.921 -0.46 +0.00    +0.047 C 
ATOM     19  C   UNL     1     161.065 168.991 175.638 -0.28 +0.00    -0.011 A 
ATOM     20  C   UNL     1     162.305 168.490 175.169 -0.29 -0.00    +0.038 A 
ATOM     21  C   UNL     1     162.853 167.346 175.771 -0.33 -0.00    +0.024 A 
ATOM     22  C   UNL     1     162.260 166.756 176.882 -0.37 -0.00    +0.003 A 
ATOM     23  C   UNL     1     161.097 167.299 177.407 -0.42 -0.00    +0.020 A 
ATOM     24  C   UNL     1     160.495 168.396 176.785 -0.44 -0.01    +0.046 A 
ATOM     25 CL   UNL     1     159.043 168.986 177.522 -0.57 +0.03    -0.083 Cl
ENDBRANCH  14  20
ENDBRANCH   1  16
TORSDOF 4
TER
ENDMDL
