MODEL        1
USER    Run = 1
USER
USER    Estimated Free Energy of Binding    =  -4.06 kcal/mol  [=(1)+(2)+(3)-(4)]
USER
USER    (1) Final Intermolecular Energy     =  -5.55 kcal/mol
USER        vdW + Hbond + desolv Energy     =  -5.46 kcal/mol
USER        Electrostatic Energy            =  -0.09 kcal/mol
USER        Moving Ligand-Fixed Receptor    =  -5.55 kcal/mol
USER        Moving Ligand-Moving Receptor   =  +0.00 kcal/mol
USER    (2) Final Total Internal Energy     =  -0.78 kcal/mol
USER    (3) Torsional Free Energy           =  +1.49 kcal/mol
USER    (4) Unbound System's Energy         =  -0.78 kcal/mol
USER
USER
REMARK  Name = Z14502924
REMARK  5 active torsions:
REMARK  status: ('A' for Active; 'I' for Inactive)
REMARK    1  A    between atoms: C_5  and  C_6
REMARK    2  A    between atoms: C_6  and  N_7
REMARK    3  A    between atoms: C_8  and  C_10
REMARK    4  A    between atoms: C_10  and  N_11
REMARK    5  A    between atoms: C_13  and  C_19
REMARK                            x       y       z     vdW  Elec       q    Type
REMARK                         _______ _______ _______ _____ _____    ______ ____
USER                              x       y       z     vdW  Elec       q    Type
USER                           _______ _______ _______ _____ _____    ______ ____
ROOT
ATOM      1  C   UNL     1     164.750 171.353 171.116 -0.17 -0.04    +0.220 C 
ENDROOT
BRANCH   1   2
ATOM      2  N   UNL     1     164.982 172.771 171.371 -0.07 +0.02    -0.305 N 
ATOM      3  C   UNL     1     165.647 173.507 170.386 -0.15 +0.04    +0.270 C 
ATOM      4  O   UNL     1     166.026 173.010 169.327 -0.85 -0.13    -0.266 OA
ATOM      5  C   UNL     1     165.881 174.951 170.718 -0.21 -0.00    +0.106 C 
ATOM      6 CL   UNL     1     166.759 175.916 169.597 -0.39 -0.00    -0.078 Cl
ATOM      7  C   UNL     1     165.425 175.464 171.870 -0.15 -0.01    +0.039 C 
ATOM      8  C   UNL     1     164.692 174.644 172.822 -0.15 -0.02    +0.072 C 
ATOM      9  C   UNL     1     164.504 173.343 172.539 -0.06 -0.02    +0.102 C 
BRANCH   8  10
ATOM     10  C   UNL     1     164.167 175.260 174.089 +0.01 -0.03    +0.419 C 
ATOM     11  F   UNL     1     165.050 175.117 175.110 +0.01 -0.00    -0.166 F 
ATOM     12  F   UNL     1     163.007 174.681 174.486 -0.04 -0.06    -0.166 F 
ATOM     13  F   UNL     1     163.921 176.590 173.968 -0.03 +0.05    -0.166 F 
ENDBRANCH   8  10
ENDBRANCH   1   2
BRANCH   1  16
ATOM     14  N   UNL     1     163.980 169.436 172.430 -0.16 +0.08    -0.310 N 
ATOM     15  H   UNL     1     163.175 169.434 171.816 +0.09 -0.04    +0.149 HD
ATOM     16  C   UNL     1     164.829 170.522 172.400 -0.20 -0.07    +0.233 C 
ATOM     17  O   UNL     1     165.613 170.796 173.307 -0.23 +0.14    -0.274 OA
BRANCH  14  18
ATOM     18  C   UNL     1     164.017 168.468 173.501 -0.36 -0.03    +0.139 C 
BRANCH  18  23
ATOM     19  F   UNL     1     159.951 169.234 177.328 -0.13 +0.05    -0.205 F 
ATOM     20  C   UNL     1     160.892 169.035 176.397 -0.35 -0.01    +0.123 A 
ATOM     21  C   UNL     1     161.105 169.998 175.419 -0.42 -0.00    +0.039 A 
ATOM     22  C   UNL     1     162.101 169.800 174.462 -0.36 -0.00    +0.008 A 
ATOM     23  C   UNL     1     162.896 168.642 174.491 -0.34 +0.00    -0.030 A 
ATOM     24  C   UNL     1     162.644 167.667 175.469 -0.37 -0.00    +0.008 A 
ATOM     25  C   UNL     1     161.646 167.866 176.425 -0.38 -0.00    +0.039 A 
ENDBRANCH  18  23
ENDBRANCH  14  18
ENDBRANCH   1  16
TORSDOF 5
TER
ENDMDL
