MODEL        1
USER    Run = 1
USER
USER    Estimated Free Energy of Binding    =  -3.94 kcal/mol  [=(1)+(2)+(3)-(4)]
USER
USER    (1) Final Intermolecular Energy     =  -5.13 kcal/mol
USER        vdW + Hbond + desolv Energy     =  -5.05 kcal/mol
USER        Electrostatic Energy            =  -0.08 kcal/mol
USER        Moving Ligand-Fixed Receptor    =  -5.13 kcal/mol
USER        Moving Ligand-Moving Receptor   =  +0.00 kcal/mol
USER    (2) Final Total Internal Energy     =  -0.71 kcal/mol
USER    (3) Torsional Free Energy           =  +1.19 kcal/mol
USER    (4) Unbound System's Energy         =  -0.71 kcal/mol
USER
USER
REMARK  Name = Z14504868
REMARK  5 active torsions:
REMARK  status: ('A' for Active; 'I' for Inactive)
REMARK    1  A    between atoms: C_1  and  C_2
REMARK    2  A    between atoms: C_2  and  N_3
REMARK    3  A    between atoms: C_4  and  C_6
REMARK    4  A    between atoms: C_6  and  N_7
REMARK    5  A    between atoms: C_9  and  C_15
REMARK                            x       y       z     vdW  Elec       q    Type
REMARK                         _______ _______ _______ _____ _____    ______ ____
USER                              x       y       z     vdW  Elec       q    Type
USER                           _______ _______ _______ _____ _____    ______ ____
ROOT
ATOM      1  N   UNL     1     159.033 168.815 176.835 -0.25 +0.09    -0.305 N 
ATOM      2  C   UNL     1     159.638 169.730 175.967 -0.22 -0.03    +0.270 C 
ATOM      3  O   UNL     1     159.001 170.599 175.372 -0.34 +0.02    -0.266 OA
ATOM      4  C   UNL     1     161.116 169.561 175.786 -0.42 -0.00    +0.106 C 
ATOM      5 CL   UNL     1     161.960 170.718 174.834 -0.43 +0.00    -0.078 Cl
ATOM      6  C   UNL     1     161.751 168.529 176.358 -0.32 -0.00    +0.039 C 
ATOM      7  C   UNL     1     161.035 167.554 177.163 -0.46 -0.01    +0.072 C 
ATOM      8  C   UNL     1     159.720 167.741 177.380 -0.32 -0.03    +0.102 C 
ENDROOT
BRANCH   7   9
ATOM      9  C   UNL     1     161.773 166.373 177.729 -0.09 -0.07    +0.419 C 
ATOM     10  F   UNL     1     162.586 166.737 178.753 -0.16 +0.03    -0.166 F 
ATOM     11  F   UNL     1     162.558 165.783 176.793 +0.14 +0.03    -0.166 F 
ATOM     12  F   UNL     1     160.945 165.412 178.209 -0.03 +0.04    -0.166 F 
ENDBRANCH   7   9
BRANCH   1  13
ATOM     13  C   UNL     1     157.598 168.953 177.099 -0.17 -0.14    +0.220 C 
BRANCH  13  16
ATOM     14  N   UNL     1     156.915 166.665 176.559 -0.19 +0.20    -0.314 N 
ATOM     15  H   UNL     1     157.141 166.936 175.601 -0.43 -0.14    +0.149 HD
ATOM     16  C   UNL     1     156.986 167.626 177.543 -0.35 -0.13    +0.233 C 
ATOM     17  O   UNL     1     156.567 167.456 178.686 -0.30 +0.13    -0.274 OA
BRANCH  14  19
ATOM     18  C   UNL     1     157.390 164.307 177.046 -0.40 -0.01    +0.024 C 
ATOM     19  C   UNL     1     156.332 165.369 176.821 -0.31 -0.05    +0.101 C 
ENDBRANCH  14  19
ENDBRANCH  13  16
ENDBRANCH   1  13
TORSDOF 4
TER
ENDMDL
