MODEL        1
USER    Run = 1
USER
USER    Estimated Free Energy of Binding    =  -3.32 kcal/mol  [=(1)+(2)+(3)-(4)]
USER
USER    (1) Final Intermolecular Energy     =  -4.81 kcal/mol
USER        vdW + Hbond + desolv Energy     =  -4.81 kcal/mol
USER        Electrostatic Energy            =  +0.00 kcal/mol
USER        Moving Ligand-Fixed Receptor    =  -4.81 kcal/mol
USER        Moving Ligand-Moving Receptor   =  +0.00 kcal/mol
USER    (2) Final Total Internal Energy     =  -2.20 kcal/mol
USER    (3) Torsional Free Energy           =  +1.49 kcal/mol
USER    (4) Unbound System's Energy         =  -2.20 kcal/mol
USER
USER
REMARK  Name = Z14776412
REMARK  5 active torsions:
REMARK  status: ('A' for Active; 'I' for Inactive)
REMARK    1  A    between atoms: C_7  and  O_8
REMARK    2  A    between atoms: O_8  and  C_9
REMARK    3  A    between atoms: C_9  and  C_10
REMARK    4  A    between atoms: N_12  and  C_13
REMARK    5  A    between atoms: C_13  and  C_14
REMARK                            x       y       z     vdW  Elec       q    Type
REMARK                         _______ _______ _______ _____ _____    ______ ____
USER                              x       y       z     vdW  Elec       q    Type
USER                           _______ _______ _______ _____ _____    ______ ____
ROOT
ATOM      1  C   UNL     1     162.778 172.702 175.768 -0.10 +0.07    +0.324 C 
ENDROOT
BRANCH   1   2
ATOM      2  C   UNL     1     163.463 173.917 175.150 -0.06 +0.08    +0.251 C 
ATOM      3  N   UNL     1     163.767 173.780 173.811 +0.01 +0.02    -0.310 N 
ATOM      4  H   UNL     1     163.797 172.850 173.412 +0.08 -0.02    +0.149 HD
ATOM      5  O   UNL     1     163.689 174.941 175.791 -0.63 -0.17    -0.272 OA
BRANCH   3   6
ATOM      6  C   UNL     1     164.452 174.827 173.071 -0.12 -0.03    +0.135 C 
BRANCH   6   7
ATOM      7  C   UNL     1     164.519 174.557 171.566 -0.17 -0.03    +0.135 C 
ATOM      8  O   UNL     1     164.154 173.187 171.287 -0.04 +0.06    -0.375 OA
ATOM      9  C   UNL     1     164.965 172.726 170.194 -0.26 -0.00    +0.160 C 
ATOM     10  C   UNL     1     165.743 173.917 169.676 -0.38 +0.00    +0.030 C 
ATOM     11  C   UNL     1     165.872 174.773 170.909 -0.25 -0.00    +0.035 C 
ENDBRANCH   6   7
ENDBRANCH   3   6
ENDBRANCH   1   2
BRANCH   1  12
ATOM     12  O   UNL     1     162.506 171.721 174.775 +0.03 +0.01    -0.481 OA
BRANCH  12  16
ATOM     13 CL   UNL     1     159.431 168.581 177.465 -0.66 +0.03    -0.083 Cl
ATOM     14  C   UNL     1     160.778 168.888 176.437 -0.42 -0.00    +0.044 A 
ATOM     15  C   UNL     1     161.070 170.200 176.058 -0.38 -0.00    +0.067 A 
ATOM     16  C   UNL     1     162.157 170.468 175.216 -0.18 -0.01    +0.141 A 
ATOM     17  C   UNL     1     162.944 169.389 174.771 -0.14 -0.01    +0.083 A 
ATOM     18 CL   UNL     1     164.309 169.638 173.738 -0.52 +0.02    -0.080 Cl
ATOM     19  C   UNL     1     162.648 168.078 175.157 -0.34 -0.00    +0.025 A 
ATOM     20  C   UNL     1     161.560 167.826 175.994 -0.29 -0.00    +0.021 A 
ENDBRANCH  12  16
ENDBRANCH   1  12
TORSDOF 5
TER
ENDMDL
