MODEL        1
USER    Run = 1
USER
USER    Estimated Free Energy of Binding    =  -3.85 kcal/mol  [=(1)+(2)+(3)-(4)]
USER
USER    (1) Final Intermolecular Energy     =  -5.05 kcal/mol
USER        vdW + Hbond + desolv Energy     =  -4.86 kcal/mol
USER        Electrostatic Energy            =  -0.19 kcal/mol
USER        Moving Ligand-Fixed Receptor    =  -5.05 kcal/mol
USER        Moving Ligand-Moving Receptor   =  +0.00 kcal/mol
USER    (2) Final Total Internal Energy     =  -1.52 kcal/mol
USER    (3) Torsional Free Energy           =  +1.19 kcal/mol
USER    (4) Unbound System's Energy         =  -1.52 kcal/mol
USER
USER
REMARK  Name = Z14776395
REMARK  4 active torsions:
REMARK  status: ('A' for Active; 'I' for Inactive)
REMARK    1  A    between atoms: C_7  and  O_8
REMARK    2  A    between atoms: O_8  and  C_9
REMARK    3  A    between atoms: C_9  and  C_10
REMARK    4  A    between atoms: N_12  and  C_13
REMARK                            x       y       z     vdW  Elec       q    Type
REMARK                         _______ _______ _______ _____ _____    ______ ____
USER                              x       y       z     vdW  Elec       q    Type
USER                           _______ _______ _______ _____ _____    ______ ____
ROOT
ATOM      1  C   UNL     1     160.132 170.299 175.559 -0.22 -0.01    +0.324 C 
ENDROOT
BRANCH   1   2
ATOM      2  C   UNL     1     160.743 171.698 175.675 -0.04 +0.05    +0.251 C 
ATOM      3  N   UNL     1     162.110 171.720 175.850 -0.16 -0.03    -0.310 N 
ATOM      4  H   UNL     1     162.554 170.830 176.063 +0.12 -0.01    +0.149 HD
ATOM      5  O   UNL     1     160.051 172.710 175.599 -0.45 -0.24    -0.272 OA
BRANCH   3   6
ATOM      6  C   UNL     1     162.835 172.952 176.058 -0.27 +0.02    +0.073 C 
ATOM      7  C   UNL     1     164.076 173.072 175.175 -0.22 -0.00    +0.022 C 
ATOM      8  C   UNL     1     165.076 173.911 175.974 -0.23 -0.00    +0.002 C 
ATOM      9  C   UNL     1     164.415 174.196 177.319 -0.31 +0.00    +0.002 C 
ATOM     10  C   UNL     1     163.384 173.089 177.474 -0.30 +0.00    +0.022 C 
ENDBRANCH   3   6
ENDBRANCH   1   2
BRANCH   1  11
ATOM     11  O   UNL     1     161.030 169.307 176.046 -0.14 +0.03    -0.481 OA
BRANCH  11  15
ATOM     12 CL   UNL     1     163.847 169.689 171.746 -0.38 +0.02    -0.083 Cl
ATOM     13  C   UNL     1     163.397 168.919 173.218 -0.35 -0.01    +0.044 A 
ATOM     14  C   UNL     1     162.386 169.477 174.009 -0.30 -0.01    +0.067 A 
ATOM     15  C   UNL     1     162.011 168.855 175.204 -0.20 -0.01    +0.141 A 
ATOM     16  C   UNL     1     162.667 167.672 175.590 -0.32 -0.01    +0.083 A 
ATOM     17 CL   UNL     1     162.251 166.857 177.059 -0.52 +0.01    -0.080 Cl
ATOM     18  C   UNL     1     163.677 167.122 174.796 -0.18 -0.01    +0.025 A 
ATOM     19  C   UNL     1     164.043 167.747 173.605 -0.40 -0.01    +0.021 A 
ENDBRANCH  11  15
ENDBRANCH   1  11
TORSDOF 4
TER
ENDMDL
