MODEL        1
USER    Run = 1
USER
USER    Estimated Free Energy of Binding    =  -6.54 kcal/mol  [=(1)+(2)+(3)-(4)]
USER
USER    (1) Final Intermolecular Energy     =  -9.22 kcal/mol
USER        vdW + Hbond + desolv Energy     =  -8.99 kcal/mol
USER        Electrostatic Energy            =  -0.24 kcal/mol
USER        Moving Ligand-Fixed Receptor    =  -9.22 kcal/mol
USER        Moving Ligand-Moving Receptor   =  +0.00 kcal/mol
USER    (2) Final Total Internal Energy     =  -2.10 kcal/mol
USER    (3) Torsional Free Energy           =  +2.68 kcal/mol
USER    (4) Unbound System's Energy         =  -2.10 kcal/mol
USER
USER
REMARK  Name = Z15390474
REMARK  10 active torsions:
REMARK  status: ('A' for Active; 'I' for Inactive)
REMARK    1  A    between atoms: C_1  and  C_2
REMARK    2  A    between atoms: N_4  and  C_5
REMARK    3  A    between atoms: C_5  and  C_6
REMARK    4  A    between atoms: C_14  and  C_17
REMARK    5  A    between atoms: C_17  and  O_19
REMARK    6  A    between atoms: O_19  and  C_20
REMARK    7  A    between atoms: C_20  and  C_21
REMARK    8  A    between atoms: N_23  and  C_24
REMARK    9  A    between atoms: C_27  and  S_30
REMARK   10  A    between atoms: S_30  and  N_33
REMARK                            x       y       z     vdW  Elec       q    Type
REMARK                         _______ _______ _______ _____ _____    ______ ____
USER                              x       y       z     vdW  Elec       q    Type
USER                           _______ _______ _______ _____ _____    ______ ____
ROOT
ATOM      1  C   UNL     1     160.641 168.640 176.505 -0.22 -0.04    +0.346 C 
ATOM      2  O   UNL     1     161.042 169.766 176.779 -0.36 +0.02    -0.244 OA
ENDROOT
BRANCH   1   8
ATOM      3  C   UNL     1     156.544 164.318 177.007 -0.27 -0.03    +0.068 C 
ATOM      4  C   UNL     1     156.588 165.743 177.411 -0.36 -0.03    +0.068 A 
ATOM      5  C   UNL     1     157.607 166.684 177.284 -0.40 -0.01    +0.031 A 
ATOM      6  C   UNL     1     157.164 167.831 177.800 -0.35 -0.06    +0.107 A 
ATOM      7  S   UNL     1     158.246 169.081 177.748 -0.37 +0.03    -0.062 S 
ATOM      8  C   UNL     1     159.400 168.038 176.943 -0.35 -0.03    +0.099 A 
ATOM      9  N   UNL     1     155.907 167.612 178.239 -0.33 +0.15    -0.252 N 
ATOM     10  C   UNL     1     158.906 166.735 176.782 +0.12 -0.01    +0.034 A 
ATOM     11  N   UNL     1     155.523 166.313 178.024 -0.32 +0.09    -0.174 NA
BRANCH   9  12
ATOM     12  C   UNL     1     155.060 168.532 178.980 -0.19 -0.16    +0.180 C 
BRANCH  12  13
ATOM     13  C   UNL     1     153.950 167.831 179.722 -0.30 +0.03    -0.026 A 
ATOM     14  C   UNL     1     152.659 168.378 179.770 -0.23 -0.01    +0.005 A 
ATOM     15  C   UNL     1     151.650 167.752 180.505 -0.21 -0.00    +0.000 A 
ATOM     16  C   UNL     1     151.919 166.570 181.194 -0.29 -0.00    +0.000 A 
ATOM     17  C   UNL     1     153.194 166.010 181.143 -0.29 -0.00    +0.000 A 
ATOM     18  C   UNL     1     154.204 166.635 180.411 -0.36 -0.00    +0.005 A 
ENDBRANCH  12  13
ENDBRANCH   9  12
ENDBRANCH   1   8
BRANCH   1  19
ATOM     19  O   UNL     1     161.277 167.814 175.629 +0.10 +0.01    -0.451 OA
BRANCH  19  20
ATOM     20  C   UNL     1     162.626 167.521 175.997 -0.18 -0.04    +0.328 C 
BRANCH  20  21
ATOM     21  C   UNL     1     163.539 168.176 174.968 -0.18 -0.06    +0.255 C 
ATOM     22  N   UNL     1     163.043 169.359 174.433 -0.16 +0.05    -0.283 N 
ATOM     23  H   UNL     1     162.146 169.687 174.780 +0.11 -0.01    +0.155 HD
ATOM     24  O   UNL     1     164.591 167.620 174.658 -0.34 +0.09    -0.272 OA
BRANCH  22  25
ATOM     25  C   UNL     1     163.679 170.164 173.458 -0.27 -0.01    +0.034 A 
ATOM     26  C   UNL     1     163.674 169.725 172.125 -0.27 -0.01    +0.025 A 
ATOM     27  C   UNL     1     164.244 170.510 171.113 -0.11 -0.01    +0.030 A 
ATOM     28  C   UNL     1     164.841 171.730 171.441 -0.18 -0.01    +0.105 A 
ATOM     29  C   UNL     1     164.870 172.167 172.761 -0.17 -0.01    +0.030 A 
ATOM     30  C   UNL     1     164.298 171.380 173.760 -0.19 -0.01    +0.025 A 
BRANCH  28  31
ATOM     31  S   UNL     1     165.557 172.752 170.190 -0.42 +0.01    +0.056 S 
ATOM     32  O   UNL     1     165.921 171.934 169.051 -0.66 -0.06    -0.153 OA
ATOM     33  O   UNL     1     166.477 173.679 170.807 -0.48 -0.05    -0.153 OA
BRANCH  31  34
ATOM     34  N   UNL     1     164.231 173.656 169.712 -0.24 +0.04    -0.203 NA
ATOM     35  H   UNL     1     164.416 174.104 168.816 -0.33 -0.06    +0.144 HD
ATOM     36  H   UNL     1     163.953 174.291 170.458 +0.08 -0.03    +0.144 HD
ENDBRANCH  31  34
ENDBRANCH  28  31
ENDBRANCH  22  25
ENDBRANCH  20  21
ENDBRANCH  19  20
ENDBRANCH   1  19
TORSDOF 9
TER
ENDMDL
