MODEL        1
USER    Run = 1
USER
USER    Estimated Free Energy of Binding    =  -4.88 kcal/mol  [=(1)+(2)+(3)-(4)]
USER
USER    (1) Final Intermolecular Energy     =  -6.37 kcal/mol
USER        vdW + Hbond + desolv Energy     =  -6.26 kcal/mol
USER        Electrostatic Energy            =  -0.11 kcal/mol
USER        Moving Ligand-Fixed Receptor    =  -6.37 kcal/mol
USER        Moving Ligand-Moving Receptor   =  +0.00 kcal/mol
USER    (2) Final Total Internal Energy     =  -1.49 kcal/mol
USER    (3) Torsional Free Energy           =  +1.49 kcal/mol
USER    (4) Unbound System's Energy         =  -1.49 kcal/mol
USER
USER
REMARK  Name = Z15399774
REMARK  6 active torsions:
REMARK  status: ('A' for Active; 'I' for Inactive)
REMARK    1  A    between atoms: C_1  and  O_2
REMARK    2  A    between atoms: O_2  and  C_3
REMARK    3  A    between atoms: C_7  and  C_8
REMARK    4  A    between atoms: C_8  and  N_9
REMARK    5  A    between atoms: C_10  and  C_12
REMARK    6  A    between atoms: C_12  and  N_13
REMARK                            x       y       z     vdW  Elec       q    Type
REMARK                         _______ _______ _______ _____ _____    ______ ____
USER                              x       y       z     vdW  Elec       q    Type
USER                           _______ _______ _______ _____ _____    ______ ____
ROOT
ATOM      1  N   UNL     1     158.616 167.732 176.797 -0.20 +0.12    -0.310 N 
ATOM      2  H   UNL     1     158.337 168.655 176.486 -0.00 -0.08    +0.149 HD
ATOM      3  C   UNL     1     159.843 167.551 177.396 -0.17 -0.06    +0.233 C 
ATOM      4  O   UNL     1     160.230 166.465 177.822 -0.12 +0.06    -0.274 OA
ENDROOT
BRANCH   1   5
ATOM      5  C   UNL     1     157.674 166.647 176.653 -0.30 -0.07    +0.139 C 
BRANCH   5   8
ATOM      6  C   UNL     1     154.550 165.877 178.712 -0.27 -0.06    +0.120 A 
ATOM      7  C   UNL     1     155.642 165.728 177.852 -0.32 -0.02    +0.050 A 
ATOM      8  C   UNL     1     156.488 166.809 177.566 -0.45 +0.01    -0.027 A 
ATOM      9  C   UNL     1     156.198 168.058 178.129 -0.45 -0.00    +0.005 A 
ATOM     10  C   UNL     1     155.102 168.216 178.976 -0.39 -0.00    +0.004 A 
ATOM     11  C   UNL     1     154.280 167.128 179.270 -0.37 -0.03    +0.045 A 
BRANCH   6  13
ATOM     12  C   UNL     1     152.415 164.943 179.149 -0.20 -0.11    +0.277 C 
ATOM     13  O   UNL     1     153.805 164.747 178.907 -0.09 +0.21    -0.495 OA
ENDBRANCH   6  13
ENDBRANCH   5   8
ENDBRANCH   1   5
BRANCH   3  14
ATOM     14  C   UNL     1     160.742 168.784 177.399 -0.35 -0.05    +0.224 C 
BRANCH  14  15
ATOM     15  N   UNL     1     161.038 169.187 176.049 -0.25 +0.02    -0.265 N 
ATOM     16  C   UNL     1     162.085 168.744 175.276 -0.24 -0.01    +0.091 A 
ATOM     17  C   UNL     1     161.927 169.354 174.046 -0.15 -0.01    +0.157 A 
ATOM     18  C   UNL     1     162.807 169.133 173.008 -0.31 -0.01    +0.048 A 
ATOM     19  C   UNL     1     163.861 168.241 173.237 -0.37 -0.00    +0.004 A 
ATOM     20  C   UNL     1     164.008 167.606 174.485 -0.43 -0.00    +0.002 A 
ATOM     21  O   UNL     1     160.798 170.155 173.986 -0.15 -0.02    -0.407 OA
ATOM     22  C   UNL     1     163.115 167.865 175.531 -0.27 -0.01    +0.029 A 
ATOM     23  C   UNL     1     160.240 169.982 175.261 -0.05 -0.00    +0.422 A 
ATOM     24  O   UNL     1     159.173 170.481 175.603 -0.36 +0.02    -0.223 OA
ENDBRANCH  14  15
ENDBRANCH   3  14
TORSDOF 5
TER
ENDMDL
