MODEL        1
USER    Run = 1
USER
USER    Estimated Free Energy of Binding    =  -5.29 kcal/mol  [=(1)+(2)+(3)-(4)]
USER
USER    (1) Final Intermolecular Energy     =  -6.48 kcal/mol
USER        vdW + Hbond + desolv Energy     =  -6.42 kcal/mol
USER        Electrostatic Energy            =  -0.06 kcal/mol
USER        Moving Ligand-Fixed Receptor    =  -6.48 kcal/mol
USER        Moving Ligand-Moving Receptor   =  +0.00 kcal/mol
USER    (2) Final Total Internal Energy     =  -0.55 kcal/mol
USER    (3) Torsional Free Energy           =  +1.19 kcal/mol
USER    (4) Unbound System's Energy         =  -0.55 kcal/mol
USER
USER
REMARK  Name = Z15399560
REMARK  4 active torsions:
REMARK  status: ('A' for Active; 'I' for Inactive)
REMARK    1  A    between atoms: C_5  and  C_6
REMARK    2  A    between atoms: C_6  and  N_7
REMARK    3  A    between atoms: C_8  and  C_10
REMARK    4  A    between atoms: C_10  and  N_11
REMARK                            x       y       z     vdW  Elec       q    Type
REMARK                         _______ _______ _______ _____ _____    ______ ____
USER                              x       y       z     vdW  Elec       q    Type
USER                           _______ _______ _______ _____ _____    ______ ____
ROOT
ATOM      1  N   UNL     1     158.103 168.361 177.050 -0.23 +0.16    -0.310 N 
ATOM      2  H   UNL     1     157.874 167.736 176.288 -0.25 -0.11    +0.149 HD
ATOM      3  C   UNL     1     159.424 168.625 177.347 -0.35 -0.07    +0.233 C 
ATOM      4  O   UNL     1     159.768 169.323 178.300 -0.29 +0.11    -0.274 OA
ENDROOT
BRANCH   1   5
ATOM      5  C   UNL     1     157.017 168.906 177.837 -0.26 -0.09    +0.139 C 
BRANCH   5  10
ATOM      6  F   UNL     1     153.269 164.976 179.382 -0.06 +0.09    -0.205 F 
ATOM      7  C   UNL     1     154.138 165.915 178.986 -0.28 -0.07    +0.123 A 
ATOM      8  C   UNL     1     153.963 167.231 179.397 -0.35 -0.03    +0.039 A 
ATOM      9  C   UNL     1     154.883 168.206 179.001 -0.38 -0.01    +0.008 A 
ATOM     10  C   UNL     1     155.988 167.864 178.202 -0.46 +0.02    -0.030 A 
ATOM     11  C   UNL     1     156.130 166.533 177.777 -0.44 -0.00    +0.008 A 
ATOM     12  C   UNL     1     155.208 165.560 178.172 -0.28 -0.02    +0.039 A 
ENDBRANCH   5  10
ENDBRANCH   1   5
BRANCH   3  13
ATOM     13  C   UNL     1     160.447 167.943 176.436 -0.16 -0.02    +0.224 C 
BRANCH  13  14
ATOM     14  N   UNL     1     161.147 168.861 175.570 -0.15 +0.01    -0.265 N 
ATOM     15  C   UNL     1     162.413 168.702 175.055 -0.24 -0.01    +0.091 A 
ATOM     16  C   UNL     1     162.711 169.886 174.410 -0.20 -0.02    +0.157 A 
ATOM     17  C   UNL     1     163.934 170.101 173.807 -0.27 -0.01    +0.048 A 
ATOM     18  C   UNL     1     164.872 169.066 173.870 -0.36 -0.00    +0.004 A 
ATOM     19  C   UNL     1     164.561 167.853 174.521 -0.41 -0.00    +0.002 A 
ATOM     20  O   UNL     1     161.677 170.805 174.474 -0.12 +0.01    -0.407 OA
ATOM     21  C   UNL     1     163.313 167.660 175.122 -0.37 -0.01    +0.029 A 
ATOM     22  C   UNL     1     160.715 170.126 175.236 -0.11 -0.00    +0.422 A 
ATOM     23  O   UNL     1     159.646 170.624 175.563 -0.38 +0.00    -0.223 OA
ENDBRANCH  13  14
ENDBRANCH   3  13
TORSDOF 4
TER
ENDMDL
