MODEL        1
USER    Run = 1
USER
USER    Estimated Free Energy of Binding    =  -4.72 kcal/mol  [=(1)+(2)+(3)-(4)]
USER
USER    (1) Final Intermolecular Energy     =  -6.81 kcal/mol
USER        vdW + Hbond + desolv Energy     =  -6.60 kcal/mol
USER        Electrostatic Energy            =  -0.22 kcal/mol
USER        Moving Ligand-Fixed Receptor    =  -6.81 kcal/mol
USER        Moving Ligand-Moving Receptor   =  +0.00 kcal/mol
USER    (2) Final Total Internal Energy     =  -2.87 kcal/mol
USER    (3) Torsional Free Energy           =  +2.09 kcal/mol
USER    (4) Unbound System's Energy         =  -2.87 kcal/mol
USER
USER
REMARK  Name = Z15391380
REMARK  8 active torsions:
REMARK  status: ('A' for Active; 'I' for Inactive)
REMARK    1  A    between atoms: C_1  and  C_2
REMARK    2  A    between atoms: N_4  and  C_5
REMARK    3  A    between atoms: C_5  and  C_6
REMARK    4  A    between atoms: C_14  and  C_17
REMARK    5  A    between atoms: C_17  and  O_19
REMARK    6  A    between atoms: O_19  and  C_20
REMARK    7  A    between atoms: C_20  and  C_21
REMARK    8  A    between atoms: N_23  and  C_24
REMARK                            x       y       z     vdW  Elec       q    Type
REMARK                         _______ _______ _______ _____ _____    ______ ____
USER                              x       y       z     vdW  Elec       q    Type
USER                           _______ _______ _______ _____ _____    ______ ____
ROOT
ATOM      1  C   UNL     1     165.992 171.224 172.654 -0.17 -0.03    +0.068 C 
ATOM      2  C   UNL     1     164.730 171.221 173.428 -0.20 -0.02    +0.068 A 
ATOM      3  C   UNL     1     164.315 172.034 174.481 -0.17 -0.01    +0.031 A 
ATOM      4  C   UNL     1     163.096 171.636 174.846 -0.10 -0.01    +0.107 A 
ATOM      5  S   UNL     1     162.433 172.486 176.101 -0.42 -0.01    -0.062 S 
ATOM      6  C   UNL     1     163.861 173.497 176.161 -0.16 +0.02    +0.099 A 
ATOM      7  N   UNL     1     162.758 170.605 174.044 -0.08 +0.04    -0.252 N 
ATOM      8  C   UNL     1     164.826 173.101 175.220 -0.14 -0.00    +0.034 A 
ATOM      9  N   UNL     1     163.762 170.313 173.156 -0.21 +0.04    -0.174 NA
ENDROOT
BRANCH   6  10
ATOM     10  C   UNL     1     163.849 174.610 177.088 -0.07 +0.16    +0.346 C 
ATOM     11  O   UNL     1     164.110 174.565 178.286 -0.64 -0.11    -0.244 OA
BRANCH  10  12
ATOM     12  O   UNL     1     163.388 175.731 176.467 -0.54 -0.46    -0.451 OA
BRANCH  12  13
ATOM     13  C   UNL     1     164.383 176.743 176.298 +0.02 +0.15    +0.328 C 
BRANCH  13  14
ATOM     14  C   UNL     1     165.132 176.445 175.003 -0.01 +0.01    +0.255 C 
ATOM     15  N   UNL     1     164.342 175.895 174.002 -0.06 +0.05    -0.283 N 
ATOM     16  H   UNL     1     163.352 175.770 174.204 +0.02 -0.00    +0.155 HD
ATOM     17  O   UNL     1     166.340 176.660 174.942 -0.06 +0.02    -0.272 OA
BRANCH  15  18
ATOM     18  C   UNL     1     164.779 175.474 172.723 -0.11 -0.01    +0.034 A 
ATOM     19  C   UNL     1     165.859 176.150 172.139 -0.09 -0.00    +0.023 A 
ATOM     20  C   UNL     1     166.351 175.762 170.887 -0.19 -0.00    +0.002 A 
ATOM     21  C   UNL     1     165.763 174.703 170.202 -0.26 +0.00    +0.000 A 
ATOM     22  C   UNL     1     164.676 174.037 170.765 -0.26 -0.00    +0.002 A 
ATOM     23  C   UNL     1     164.192 174.423 172.015 -0.13 -0.01    +0.023 A 
ENDBRANCH  15  18
ENDBRANCH  13  14
ENDBRANCH  12  13
ENDBRANCH  10  12
ENDBRANCH   6  10
BRANCH   7  24
ATOM     24  C   UNL     1     161.574 169.767 174.140 -0.21 -0.01    +0.180 C 
BRANCH  24  25
ATOM     25  C   UNL     1     161.528 168.972 175.420 -0.29 +0.00    -0.026 A 
ATOM     26  C   UNL     1     162.369 167.863 175.611 -0.36 -0.00    +0.005 A 
ATOM     27  C   UNL     1     162.285 167.101 176.778 -0.42 -0.00    +0.000 A 
ATOM     28  C   UNL     1     161.365 167.439 177.768 -0.39 -0.00    +0.000 A 
ATOM     29  C   UNL     1     160.532 168.542 177.595 -0.45 -0.00    +0.000 A 
ATOM     30  C   UNL     1     160.612 169.305 176.429 -0.47 -0.00    +0.005 A 
ENDBRANCH  24  25
ENDBRANCH   7  24
TORSDOF 7
TER
ENDMDL
