MODEL        1
USER    Run = 1
USER
USER    Estimated Free Energy of Binding    =  -7.08 kcal/mol  [=(1)+(2)+(3)-(4)]
USER
USER    (1) Final Intermolecular Energy     =  -7.97 kcal/mol
USER        vdW + Hbond + desolv Energy     =  -7.89 kcal/mol
USER        Electrostatic Energy            =  -0.08 kcal/mol
USER        Moving Ligand-Fixed Receptor    =  -7.97 kcal/mol
USER        Moving Ligand-Moving Receptor   =  +0.00 kcal/mol
USER    (2) Final Total Internal Energy     =  -0.31 kcal/mol
USER    (3) Torsional Free Energy           =  +0.89 kcal/mol
USER    (4) Unbound System's Energy         =  -0.31 kcal/mol
USER
USER
REMARK  Name = Z15477743
REMARK  4 active torsions:
REMARK  status: ('A' for Active; 'I' for Inactive)
REMARK    1  A    between atoms: C_1  and  N_2
REMARK    2  A    between atoms: C_3  and  S_4
REMARK    3  A    between atoms: S_4  and  C_5
REMARK    4  A    between atoms: C_5  and  C_6
REMARK                            x       y       z     vdW  Elec       q    Type
REMARK                         _______ _______ _______ _____ _____    ______ ____
USER                              x       y       z     vdW  Elec       q    Type
USER                           _______ _______ _______ _____ _____    ______ ____
ROOT
ATOM      1  C   UNL     1     158.251 168.920 176.903 -0.27 -0.07    +0.133 C 
ENDROOT
BRANCH   1   2
ATOM      2  C   UNL     1     157.191 167.965 177.446 -0.49 -0.04    +0.059 C 
ATOM      3  N   UNL     1     156.153 168.472 178.187 -0.28 +0.15    -0.233 NA
ATOM      4  C   UNL     1     155.231 167.658 178.597 -0.33 -0.10    +0.141 A 
ATOM      5  N   UNL     1     155.220 166.291 178.355 -0.24 +0.14    -0.267 N 
ATOM      6  C   UNL     1     154.177 165.487 178.810 -0.24 -0.05    +0.111 A 
ATOM      7  C   UNL     1     153.136 165.990 179.490 -0.30 -0.02    +0.035 A 
ATOM      8  C   UNL     1     153.098 167.405 179.777 -0.29 -0.02    +0.020 A 
ATOM      9 BR   UNL     1     151.722 164.934 180.088 -0.62 +0.02    -0.049 Br
ATOM     10  C   UNL     1     156.258 165.720 177.638 -0.25 -0.12    +0.259 C 
ATOM     11  O   UNL     1     156.371 164.525 177.369 -0.24 +0.12    -0.267 OA
ATOM     12  C   UNL     1     154.088 168.210 179.375 -0.30 -0.05    +0.048 A 
ATOM     13  C   UNL     1     157.291 166.658 177.157 -0.44 -0.05    +0.095 C 
ENDBRANCH   1   2
BRANCH   1  14
ATOM     14  S   UNL     1     159.806 168.978 177.860 -0.52 +0.03    -0.081 S 
BRANCH  14  24
ATOM     15  C   UNL     1     162.090 166.685 177.346 -0.34 -0.02    +0.151 C 
ATOM     16  N   UNL     1     161.881 167.814 176.475 -0.21 +0.03    -0.322 N 
ATOM     17  C   UNL     1     162.620 168.034 175.329 -0.30 -0.01    +0.069 A 
ATOM     18  C   UNL     1     162.105 169.216 174.809 -0.27 -0.01    +0.090 A 
ATOM     19  C   UNL     1     162.641 169.736 173.621 -0.27 -0.00    +0.030 A 
ATOM     20  C   UNL     1     163.681 169.043 172.989 -0.38 -0.00    +0.002 A 
ATOM     21  C   UNL     1     164.180 167.857 173.530 -0.37 -0.00    +0.002 A 
ATOM     22  N   UNL     1     161.093 169.703 175.597 -0.29 +0.01    -0.222 NA
ATOM     23  C   UNL     1     163.662 167.325 174.714 -0.32 -0.01    +0.028 A 
ATOM     24  C   UNL     1     160.974 168.842 176.582 -0.31 -0.02    +0.170 A 
ENDBRANCH  14  24
ENDBRANCH   1  14
TORSDOF 3
TER
ENDMDL
