MODEL        1
USER    Run = 1
USER
USER    Estimated Free Energy of Binding    =  -4.97 kcal/mol  [=(1)+(2)+(3)-(4)]
USER
USER    (1) Final Intermolecular Energy     =  -6.76 kcal/mol
USER        vdW + Hbond + desolv Energy     =  -6.74 kcal/mol
USER        Electrostatic Energy            =  -0.02 kcal/mol
USER        Moving Ligand-Fixed Receptor    =  -6.76 kcal/mol
USER        Moving Ligand-Moving Receptor   =  +0.00 kcal/mol
USER    (2) Final Total Internal Energy     =  -1.48 kcal/mol
USER    (3) Torsional Free Energy           =  +1.79 kcal/mol
USER    (4) Unbound System's Energy         =  -1.48 kcal/mol
USER
USER
REMARK  Name = Z15477343
REMARK  7 active torsions:
REMARK  status: ('A' for Active; 'I' for Inactive)
REMARK    1  A    between atoms: C_1  and  C_2
REMARK    2  A    between atoms: C_2  and  N_3
REMARK    3  A    between atoms: C_4  and  S_5
REMARK    4  A    between atoms: S_5  and  C_6
REMARK    5  A    between atoms: C_6  and  C_7
REMARK    6  A    between atoms: N_9  and  C_10
REMARK    7  A    between atoms: C_10  and  C_11
REMARK                            x       y       z     vdW  Elec       q    Type
REMARK                         _______ _______ _______ _____ _____    ______ ____
USER                              x       y       z     vdW  Elec       q    Type
USER                           _______ _______ _______ _____ _____    ______ ____
ROOT
ATOM      1  S   UNL     1     158.887 168.698 176.658 -0.57 +0.03    -0.078 S 
ENDROOT
BRANCH   1  10
ATOM      2  N   UNL     1     157.031 166.842 177.464 -0.22 +0.16    -0.319 N 
ATOM      3  C   UNL     1     155.854 166.791 178.188 -0.40 -0.04    +0.069 A 
ATOM      4  C   UNL     1     155.659 168.101 178.616 -0.32 -0.06    +0.090 A 
ATOM      5  C   UNL     1     154.500 168.431 179.337 -0.28 -0.03    +0.030 A 
ATOM      6  C   UNL     1     153.574 167.420 179.619 -0.34 -0.00    +0.002 A 
ATOM      7  C   UNL     1     153.797 166.110 179.195 -0.36 -0.00    +0.002 A 
ATOM      8  N   UNL     1     156.681 168.913 178.196 -0.22 +0.14    -0.222 NA
ATOM      9  C   UNL     1     154.941 165.766 178.463 -0.31 -0.01    +0.028 A 
ATOM     10  C   UNL     1     157.513 168.125 177.550 -0.30 -0.09    +0.170 A 
BRANCH   2  12
ATOM     11  C   UNL     1     157.770 164.491 177.461 -0.36 -0.01    +0.027 C 
ATOM     12  C   UNL     1     157.545 165.758 176.647 -0.30 -0.05    +0.121 C 
ENDBRANCH   2  12
ENDBRANCH   1  10
BRANCH   1  13
ATOM     13  C   UNL     1     160.257 168.395 177.827 -0.23 -0.05    +0.172 C 
BRANCH  13  14
ATOM     14  C   UNL     1     161.360 167.502 177.261 -0.33 -0.03    +0.223 C 
ATOM     15  N   UNL     1     161.799 167.821 176.001 -0.19 +0.03    -0.312 N 
ATOM     16  H   UNL     1     161.590 168.760 175.680 +0.10 -0.01    +0.149 HD
ATOM     17  O   UNL     1     161.863 166.595 177.924 -0.37 +0.05    -0.275 OA
BRANCH  15  18
ATOM     18  C   UNL     1     162.831 167.115 175.276 -0.28 -0.02    +0.135 C 
BRANCH  18  19
ATOM     19  C   UNL     1     163.644 168.061 174.399 -0.39 -0.03    +0.135 C 
ATOM     20  O   UNL     1     163.341 169.430 174.714 -0.09 +0.08    -0.375 OA
ATOM     21  C   UNL     1     163.386 170.187 173.495 -0.20 -0.03    +0.160 C 
ATOM     22  C   UNL     1     163.830 169.247 172.394 -0.37 -0.01    +0.030 C 
ATOM     23  C   UNL     1     163.386 167.904 172.912 -0.40 -0.01    +0.035 C 
ENDBRANCH  18  19
ENDBRANCH  15  18
ENDBRANCH  13  14
ENDBRANCH   1  13
TORSDOF 6
TER
ENDMDL
