MODEL        1
USER    Run = 1
USER
USER    Estimated Free Energy of Binding    =  -3.83 kcal/mol  [=(1)+(2)+(3)-(4)]
USER
USER    (1) Final Intermolecular Energy     =  -5.62 kcal/mol
USER        vdW + Hbond + desolv Energy     =  -5.34 kcal/mol
USER        Electrostatic Energy            =  -0.28 kcal/mol
USER        Moving Ligand-Fixed Receptor    =  -5.62 kcal/mol
USER        Moving Ligand-Moving Receptor   =  +0.00 kcal/mol
USER    (2) Final Total Internal Energy     =  -3.59 kcal/mol
USER    (3) Torsional Free Energy           =  +1.79 kcal/mol
USER    (4) Unbound System's Energy         =  -3.59 kcal/mol
USER
USER
REMARK  Name = Z15462373
REMARK  9 active torsions:
REMARK  status: ('A' for Active; 'I' for Inactive)
REMARK    1  A    between atoms: C_1  and  C_2
REMARK    2  A    between atoms: C_2  and  N_3
REMARK    3  A    between atoms: C_5  and  C_6
REMARK    4  A    between atoms: C_6  and  O_8
REMARK    5  A    between atoms: O_8  and  C_9
REMARK    6  A    between atoms: C_9  and  C_10
REMARK    7  A    between atoms: N_12  and  C_13
REMARK    8  A    between atoms: C_14  and  C_15
REMARK    9  A    between atoms: C_19  and  C_20
REMARK                            x       y       z     vdW  Elec       q    Type
REMARK                         _______ _______ _______ _____ _____    ______ ____
USER                              x       y       z     vdW  Elec       q    Type
USER                           _______ _______ _______ _____ _____    ______ ____
ROOT
ATOM      1  C   UNL     1     163.886 176.081 174.334 +0.00 -0.01    +0.360 C 
ATOM      2  O   UNL     1     163.722 177.282 174.474 -0.29 +0.02    -0.243 OA
ENDROOT
BRANCH   1  11
ATOM      3  N   UNL     1     164.554 174.243 171.185 -0.14 +0.04    -0.229 N 
ATOM      4  C   UNL     1     165.908 174.371 170.907 -0.10 +0.01    +0.275 C 
ATOM      5  O   UNL     1     166.473 173.853 169.942 -0.70 -0.13    -0.266 OA
ATOM      6  C   UNL     1     166.699 175.173 171.859 -0.09 -0.00    +0.050 A 
ATOM      7  C   UNL     1     166.088 175.707 172.990 -0.05 -0.00    +0.021 A 
ATOM      8  C   UNL     1     166.864 176.440 173.900 -0.03 -0.00    +0.011 A 
ATOM      9  C   UNL     1     168.220 176.664 173.651 -0.05 -0.00    +0.001 A 
ATOM     10  C   UNL     1     168.819 176.148 172.505 -0.10 -0.00    +0.001 A 
ATOM     11  C   UNL     1     164.637 175.472 173.143 -0.08 -0.05    +0.176 C 
ATOM     12  C   UNL     1     168.063 175.397 171.611 -0.13 -0.00    +0.014 A 
ATOM     13  N   UNL     1     163.933 174.787 172.288 -0.15 +0.05    -0.161 NA
BRANCH   3  15
ATOM     14  C   UNL     1     164.253 172.044 170.105 -0.35 -0.01    +0.029 C 
ATOM     15  C   UNL     1     163.717 173.456 170.287 -0.14 -0.03    +0.144 C 
ENDBRANCH   3  15
ENDBRANCH   1  11
BRANCH   1  16
ATOM     16  O   UNL     1     163.458 175.118 175.174 -0.39 -0.28    -0.451 OA
BRANCH  16  17
ATOM     17  C   UNL     1     164.475 174.532 175.993 -0.04 +0.07    +0.328 C 
BRANCH  17  18
ATOM     18  C   UNL     1     164.697 173.075 175.596 -0.07 -0.02    +0.255 C 
ATOM     19  N   UNL     1     163.881 172.657 174.557 -0.06 +0.02    -0.282 N 
ATOM     20  H   UNL     1     163.534 173.374 173.931 +0.08 -0.01    +0.155 HD
ATOM     21  O   UNL     1     165.512 172.371 176.186 -0.16 +0.08    -0.272 OA
BRANCH  19  22
ATOM     22  C   UNL     1     163.778 171.317 174.123 -0.16 -0.01    +0.039 A 
ATOM     23  C   UNL     1     162.710 170.526 174.607 -0.22 +0.00    -0.029 A 
ATOM     24  C   UNL     1     161.554 171.106 175.378 -0.41 +0.00    +0.045 C 
ATOM     25  C   UNL     1     162.636 169.171 174.241 -0.36 -0.00    +0.005 A 
ATOM     26  C   UNL     1     163.609 168.596 173.432 -0.41 -0.00    +0.001 A 
ATOM     27  C   UNL     1     164.662 169.374 172.964 -0.27 -0.00    +0.005 A 
ATOM     28  C   UNL     1     164.770 170.735 173.305 -0.27 +0.01    -0.029 A 
ATOM     29  C   UNL     1     165.988 171.458 172.795 -0.22 -0.02    +0.045 C 
ENDBRANCH  19  22
ENDBRANCH  17  18
ENDBRANCH  16  17
ENDBRANCH   1  16
TORSDOF 6
TER
ENDMDL
