MODEL        1
USER    Run = 1
USER
USER    Estimated Free Energy of Binding    =  -4.33 kcal/mol  [=(1)+(2)+(3)-(4)]
USER
USER    (1) Final Intermolecular Energy     =  -5.23 kcal/mol
USER        vdW + Hbond + desolv Energy     =  -5.32 kcal/mol
USER        Electrostatic Energy            =  +0.09 kcal/mol
USER        Moving Ligand-Fixed Receptor    =  -5.23 kcal/mol
USER        Moving Ligand-Moving Receptor   =  +0.00 kcal/mol
USER    (2) Final Total Internal Energy     =  -1.52 kcal/mol
USER    (3) Torsional Free Energy           =  +0.89 kcal/mol
USER    (4) Unbound System's Energy         =  -1.52 kcal/mol
USER
USER
REMARK  Name = Z15400453
REMARK  3 active torsions:
REMARK  status: ('A' for Active; 'I' for Inactive)
REMARK    1  A    between atoms: C_8  and  N_9
REMARK    2  A    between atoms: C_10  and  C_12
REMARK    3  A    between atoms: C_12  and  N_13
REMARK                            x       y       z     vdW  Elec       q    Type
REMARK                         _______ _______ _______ _____ _____    ______ ____
USER                              x       y       z     vdW  Elec       q    Type
USER                           _______ _______ _______ _____ _____    ______ ____
ROOT
ATOM      1  N   UNL     1     163.039 169.452 174.221 -0.17 +0.05    -0.282 N 
ATOM      2  H   UNL     1     163.916 169.563 174.732 +0.12 -0.04    +0.155 HD
ATOM      3  C   UNL     1     163.115 169.192 172.859 -0.24 -0.05    +0.237 C 
ATOM      4  O   UNL     1     162.205 168.736 172.169 -0.30 +0.06    -0.274 OA
ENDROOT
BRANCH   1   7
ATOM      5  F   UNL     1     162.875 167.513 176.153 -0.12 +0.03    -0.203 F 
ATOM      6  C   UNL     1     161.818 168.320 175.980 -0.24 -0.01    +0.146 A 
ATOM      7  C   UNL     1     161.873 169.337 175.017 -0.31 -0.00    +0.069 A 
ATOM      8  C   UNL     1     160.769 170.186 174.890 -0.42 +0.00    +0.027 A 
ATOM      9  C   UNL     1     159.619 169.978 175.661 -0.34 -0.00    +0.022 A 
ATOM     10  C   UNL     1     159.570 168.925 176.571 -0.42 -0.01    +0.044 A 
ATOM     11 CL   UNL     1     158.134 168.646 177.474 -0.68 +0.04    -0.083 Cl
ATOM     12  C   UNL     1     160.674 168.099 176.748 -0.40 -0.01    +0.060 A 
ENDBRANCH   1   7
BRANCH   3  13
ATOM     13  C   UNL     1     164.490 169.442 172.245 -0.01 -0.06    +0.224 C 
BRANCH  13  14
ATOM     14  N   UNL     1     164.836 170.838 172.295 -0.17 +0.07    -0.265 N 
ATOM     15  C   UNL     1     164.833 171.737 171.259 -0.20 -0.01    +0.091 A 
ATOM     16  C   UNL     1     165.292 172.926 171.793 -0.09 -0.01    +0.157 A 
ATOM     17  C   UNL     1     165.438 174.065 171.029 -0.20 -0.00    +0.048 A 
ATOM     18  C   UNL     1     165.107 173.975 169.674 -0.31 -0.00    +0.004 A 
ATOM     19  C   UNL     1     164.639 172.763 169.128 -0.40 -0.00    +0.002 A 
ATOM     20  O   UNL     1     165.597 172.824 173.142 -0.01 +0.10    -0.407 OA
ATOM     21  C   UNL     1     164.495 171.620 169.926 -0.23 -0.01    +0.029 A 
ATOM     22  C   UNL     1     165.329 171.479 173.408 +0.05 -0.15    +0.422 A 
ATOM     23  O   UNL     1     165.529 170.947 174.494 -0.24 +0.11    -0.223 OA
ENDBRANCH  13  14
ENDBRANCH   3  13
TORSDOF 3
TER
ENDMDL
