MODEL        1
USER    Run = 1
USER
USER    Estimated Free Energy of Binding    =  -4.44 kcal/mol  [=(1)+(2)+(3)-(4)]
USER
USER    (1) Final Intermolecular Energy     =  -5.64 kcal/mol
USER        vdW + Hbond + desolv Energy     =  -5.54 kcal/mol
USER        Electrostatic Energy            =  -0.10 kcal/mol
USER        Moving Ligand-Fixed Receptor    =  -5.64 kcal/mol
USER        Moving Ligand-Moving Receptor   =  +0.00 kcal/mol
USER    (2) Final Total Internal Energy     =  -1.68 kcal/mol
USER    (3) Torsional Free Energy           =  +1.19 kcal/mol
USER    (4) Unbound System's Energy         =  -1.68 kcal/mol
USER
USER
REMARK  Name = Z15486051
REMARK  6 active torsions:
REMARK  status: ('A' for Active; 'I' for Inactive)
REMARK    1  A    between atoms: C_1  and  N_2
REMARK    2  A    between atoms: C_6  and  C_8
REMARK    3  A    between atoms: C_8  and  C_9
REMARK    4  A    between atoms: C_8  and  O_10
REMARK    5  A    between atoms: O_10  and  C_11
REMARK    6  A    between atoms: C_11  and  C_13
REMARK                            x       y       z     vdW  Elec       q    Type
REMARK                         _______ _______ _______ _____ _____    ______ ____
USER                              x       y       z     vdW  Elec       q    Type
USER                           _______ _______ _______ _____ _____    ______ ____
ROOT
ATOM      1  O   UNL     1     164.357 168.834 173.945 -0.15 +0.13    -0.449 OA
ENDROOT
BRANCH   1   2
ATOM      2  C   UNL     1     163.875 167.605 174.505 -0.29 -0.07    +0.259 C 
ATOM      3  C   UNL     1     163.790 166.478 173.478 -0.41 -0.02    +0.062 C 
BRANCH   2  10
ATOM      4  C   UNL     1     159.123 168.942 177.535 -0.37 -0.04    +0.129 C 
ATOM      5  N   UNL     1     160.249 168.568 176.724 -0.26 +0.05    -0.302 N 
ATOM      6  H   UNL     1     160.828 167.780 177.007 +0.10 -0.02    +0.150 HD
ATOM      7  C   UNL     1     160.763 169.400 175.776 -0.23 -0.01    +0.306 C 
ATOM      8  N   UNL     1     161.896 168.955 175.141 -0.22 +0.02    -0.237 N 
ATOM      9  H   UNL     1     162.307 169.667 174.546 +0.11 -0.02    +0.159 HD
ATOM     10  C   UNL     1     162.621 167.802 175.380 -0.23 -0.04    +0.261 C 
ATOM     11  O   UNL     1     162.345 166.998 176.271 -0.34 +0.04    -0.271 OA
ATOM     12  O   UNL     1     160.273 170.485 175.479 -0.41 -0.00    -0.252 OA
ENDBRANCH   2  10
ENDBRANCH   1   2
BRANCH   1  13
ATOM     13  C   UNL     1     163.659 169.368 172.918 -0.17 -0.08    +0.340 C 
ATOM     14  O   UNL     1     162.587 168.967 172.497 -0.32 +0.05    -0.245 OA
BRANCH  13  15
ATOM     15  C   UNL     1     164.406 170.505 172.331 -0.25 -0.02    +0.060 A 
ATOM     16  C   UNL     1     164.135 170.840 170.996 -0.13 -0.01    +0.032 A 
ATOM     17  C   UNL     1     164.837 171.916 170.429 -0.25 -0.00    +0.040 A 
ATOM     18  C   UNL     1     165.769 172.661 171.156 -0.12 +0.01    +0.078 A 
ATOM     19  N   UNL     1     166.379 173.690 170.461 -0.45 -0.10    -0.247 NA
ATOM     20  C   UNL     1     165.917 173.723 169.232 -0.23 +0.04    +0.157 A 
ATOM     21  C   UNL     1     166.009 172.319 172.503 -0.12 -0.01    +0.029 A 
ATOM     22  S   UNL     1     164.740 172.549 168.829 -0.53 +0.01    -0.075 S 
ATOM     23  C   UNL     1     165.326 171.241 173.082 -0.26 -0.01    +0.017 A 
ENDBRANCH  13  15
ENDBRANCH   1  13
TORSDOF 4
TER
ENDMDL
