MODEL        1
USER    Run = 1
USER
USER    Estimated Free Energy of Binding    =  -7.22 kcal/mol  [=(1)+(2)+(3)-(4)]
USER
USER    (1) Final Intermolecular Energy     =  -8.41 kcal/mol
USER        vdW + Hbond + desolv Energy     =  -8.37 kcal/mol
USER        Electrostatic Energy            =  -0.04 kcal/mol
USER        Moving Ligand-Fixed Receptor    =  -8.41 kcal/mol
USER        Moving Ligand-Moving Receptor   =  +0.00 kcal/mol
USER    (2) Final Total Internal Energy     =  -0.48 kcal/mol
USER    (3) Torsional Free Energy           =  +1.19 kcal/mol
USER    (4) Unbound System's Energy         =  -0.48 kcal/mol
USER
USER
REMARK  Name = Z15476502
REMARK  5 active torsions:
REMARK  status: ('A' for Active; 'I' for Inactive)
REMARK    1  A    between atoms: C_1  and  C_2
REMARK    2  A    between atoms: C_2  and  N_3
REMARK    3  A    between atoms: C_4  and  S_5
REMARK    4  A    between atoms: S_5  and  C_6
REMARK    5  A    between atoms: C_6  and  C_7
REMARK                            x       y       z     vdW  Elec       q    Type
REMARK                         _______ _______ _______ _____ _____    ______ ____
USER                              x       y       z     vdW  Elec       q    Type
USER                           _______ _______ _______ _____ _____    ______ ____
ROOT
ATOM      1  C   UNL     1     158.355 168.984 176.915 -0.31 -0.06    +0.133 C 
ENDROOT
BRANCH   1   2
ATOM      2  C   UNL     1     157.313 167.988 177.424 -0.48 -0.03    +0.059 C 
ATOM      3  N   UNL     1     156.288 168.456 178.206 -0.31 +0.15    -0.233 NA
ATOM      4  C   UNL     1     155.354 167.633 178.565 -0.34 -0.09    +0.141 A 
ATOM      5  N   UNL     1     155.321 166.288 178.234 -0.24 +0.14    -0.267 N 
ATOM      6  C   UNL     1     154.251 165.482 178.619 -0.25 -0.05    +0.111 A 
ATOM      7  C   UNL     1     153.212 165.966 179.317 -0.30 -0.02    +0.035 A 
ATOM      8  C   UNL     1     153.211 167.352 179.714 -0.30 -0.02    +0.020 A 
ATOM      9 BR   UNL     1     151.752 164.914 179.804 -0.62 +0.02    -0.049 Br
ATOM     10  C   UNL     1     156.361 165.747 177.494 -0.27 -0.12    +0.259 C 
ATOM     11  O   UNL     1     156.465 164.566 177.165 -0.25 +0.13    -0.267 OA
ATOM     12  C   UNL     1     154.226 168.158 179.379 -0.30 -0.05    +0.048 A 
ATOM     13  C   UNL     1     157.404 166.699 177.063 -0.44 -0.05    +0.095 C 
ENDBRANCH   1   2
BRANCH   1  14
ATOM     14  S   UNL     1     159.923 168.957 177.850 -0.54 +0.03    -0.081 S 
BRANCH  14  23
ATOM     15  N   UNL     1     161.408 169.752 175.691 -0.19 +0.02    -0.319 N 
ATOM     16  C   UNL     1     162.362 169.245 174.830 -0.29 -0.01    +0.069 A 
ATOM     17  C   UNL     1     162.538 167.930 175.253 -0.28 -0.01    +0.090 A 
ATOM     18  C   UNL     1     163.442 167.103 174.565 -0.32 -0.01    +0.030 A 
ATOM     19  C   UNL     1     164.145 167.628 173.474 -0.36 -0.00    +0.002 A 
ATOM     20  C   UNL     1     163.961 168.955 173.075 -0.37 -0.00    +0.002 A 
ATOM     21  N   UNL     1     161.746 167.647 176.337 -0.29 +0.02    -0.222 NA
ATOM     22  C   UNL     1     163.065 169.792 173.748 -0.30 -0.01    +0.028 A 
ATOM     23  C   UNL     1     161.081 168.754 176.578 -0.30 -0.02    +0.170 A 
BRANCH  15  25
ATOM     24  C   UNL     1     161.842 172.175 175.964 -0.37 +0.01    +0.027 C 
ATOM     25  C   UNL     1     160.849 171.088 175.591 -0.37 +0.01    +0.121 C 
ENDBRANCH  15  25
ENDBRANCH  14  23
ENDBRANCH   1  14
TORSDOF 4
TER
ENDMDL
