MODEL        1
USER    Run = 1
USER
USER    Estimated Free Energy of Binding    =  -4.70 kcal/mol  [=(1)+(2)+(3)-(4)]
USER
USER    (1) Final Intermolecular Energy     =  -5.60 kcal/mol
USER        vdW + Hbond + desolv Energy     =  -5.68 kcal/mol
USER        Electrostatic Energy            =  +0.09 kcal/mol
USER        Moving Ligand-Fixed Receptor    =  -5.60 kcal/mol
USER        Moving Ligand-Moving Receptor   =  +0.00 kcal/mol
USER    (2) Final Total Internal Energy     =  -0.77 kcal/mol
USER    (3) Torsional Free Energy           =  +0.89 kcal/mol
USER    (4) Unbound System's Energy         =  -0.77 kcal/mol
USER
USER
REMARK  Name = Z15407628
REMARK  4 active torsions:
REMARK  status: ('A' for Active; 'I' for Inactive)
REMARK    1  A    between atoms: C_1  and  O_2
REMARK    2  A    between atoms: O_2  and  C_3
REMARK    3  A    between atoms: N_15  and  C_16
REMARK    4  A    between atoms: C_16  and  C_17
REMARK                            x       y       z     vdW  Elec       q    Type
REMARK                         _______ _______ _______ _____ _____    ______ ____
USER                              x       y       z     vdW  Elec       q    Type
USER                           _______ _______ _______ _____ _____    ______ ____
ROOT
ATOM      1  C   UNL     1     160.744 169.365 176.743 -0.36 -0.01    +0.120 A 
ATOM      2  C   UNL     1     161.194 168.064 176.506 -0.38 -0.00    +0.049 A 
ATOM      3  C   UNL     1     162.131 167.796 175.493 -0.23 +0.00    -0.038 A 
ATOM      4  C   UNL     1     162.640 166.384 175.330 +0.17 -0.01    +0.036 C 
ATOM      5  C   UNL     1     163.383 166.149 174.016 -0.16 -0.00    +0.007 C 
ATOM      6  C   UNL     1     164.382 167.268 173.758 -0.40 -0.01    +0.040 C 
ATOM      7  C   UNL     1     163.675 168.628 173.643 -0.37 -0.03    +0.138 C 
ATOM      8  C   UNL     1     164.766 169.722 173.601 -0.21 -0.09    +0.251 C 
ATOM      9  O   UNL     1     165.480 170.064 174.536 -0.25 +0.14    -0.272 OA
ATOM     10  N   UNL     1     164.801 170.240 172.334 -0.22 +0.06    -0.219 N 
ATOM     11  C   UNL     1     163.761 169.767 171.597 -0.07 -0.09    +0.310 C 
ATOM     12  O   UNL     1     163.410 170.136 170.489 -0.20 +0.09    -0.252 OA
ATOM     13  N   UNL     1     163.103 168.808 172.327 -0.21 +0.07    -0.281 N 
ATOM     14  H   UNL     1     162.230 168.410 172.010 +0.09 -0.04    +0.152 HD
ATOM     15  C   UNL     1     162.626 168.859 174.710 -0.33 +0.00    -0.012 A 
ATOM     16  C   UNL     1     162.100 170.149 174.913 -0.33 -0.00    +0.010 A 
ATOM     17  C   UNL     1     161.171 170.399 175.919 -0.39 -0.00    +0.046 A 
ENDROOT
BRANCH   1  19
ATOM     18  C   UNL     1     158.629 168.844 177.612 -0.19 -0.11    +0.277 C 
ATOM     19  O   UNL     1     159.870 169.527 177.785 -0.06 +0.13    -0.495 OA
ENDBRANCH   1  19
BRANCH  10  20
ATOM     20  C   UNL     1     165.731 171.253 171.887 -0.20 -0.02    +0.157 C 
BRANCH  20  21
ATOM     21  C   UNL     1     165.238 172.675 172.053 -0.17 -0.00    +0.024 A 
ATOM     22  C   UNL     1     165.020 173.509 170.946 -0.22 -0.00    +0.048 A 
ATOM     23 CL   UNL     1     165.348 172.997 169.326 -0.60 -0.01    -0.083 Cl
ATOM     24  C   UNL     1     164.506 174.805 171.104 -0.11 -0.00    +0.020 A 
ATOM     25  C   UNL     1     164.181 175.286 172.370 -0.12 -0.00    +0.004 A 
ATOM     26  C   UNL     1     164.369 174.471 173.479 -0.12 -0.01    +0.039 A 
ATOM     27  C   UNL     1     164.883 173.187 173.313 -0.05 -0.03    +0.130 A 
ATOM     28  F   UNL     1     165.024 172.443 174.420 +0.01 +0.05    -0.205 F 
ENDBRANCH  20  21
ENDBRANCH  10  20
TORSDOF 3
TER
ENDMDL
