MODEL        1
USER    Run = 1
USER
USER    Estimated Free Energy of Binding    =  -4.24 kcal/mol  [=(1)+(2)+(3)-(4)]
USER
USER    (1) Final Intermolecular Energy     =  -6.33 kcal/mol
USER        vdW + Hbond + desolv Energy     =  -5.84 kcal/mol
USER        Electrostatic Energy            =  -0.49 kcal/mol
USER        Moving Ligand-Fixed Receptor    =  -6.33 kcal/mol
USER        Moving Ligand-Moving Receptor   =  +0.00 kcal/mol
USER    (2) Final Total Internal Energy     =  -1.40 kcal/mol
USER    (3) Torsional Free Energy           =  +2.09 kcal/mol
USER    (4) Unbound System's Energy         =  -1.40 kcal/mol
USER
USER
REMARK  Name = Z15475918
REMARK  8 active torsions:
REMARK  status: ('A' for Active; 'I' for Inactive)
REMARK    1  A    between atoms: C_1  and  O_2
REMARK    2  A    between atoms: O_2  and  C_3
REMARK    3  A    between atoms: C_6  and  C_17
REMARK    4  A    between atoms: C_8  and  S_9
REMARK    5  A    between atoms: S_9  and  N_12
REMARK    6  A    between atoms: C_17  and  O_19
REMARK    7  A    between atoms: O_19  and  C_20
REMARK    8  A    between atoms: C_20  and  C_21
REMARK                            x       y       z     vdW  Elec       q    Type
REMARK                         _______ _______ _______ _____ _____    ______ ____
USER                              x       y       z     vdW  Elec       q    Type
USER                           _______ _______ _______ _____ _____    ______ ____
ROOT
ATOM      1  C   UNL     1     164.294 175.868 174.571 -0.05 +0.00    +0.146 A 
ATOM      2  C   UNL     1     164.414 174.467 174.563 -0.06 -0.00    +0.148 A 
ATOM      3  C   UNL     1     164.844 173.821 173.375 -0.09 -0.01    +0.047 A 
ATOM      4  C   UNL     1     165.194 174.571 172.243 -0.11 -0.01    +0.061 A 
ATOM      5  C   UNL     1     165.219 175.963 172.324 -0.08 -0.00    +0.019 A 
ATOM      6  C   UNL     1     164.791 176.602 173.481 -0.06 -0.01    +0.048 A 
ENDROOT
BRANCH   2   7
ATOM      7  S   UNL     1     163.856 173.429 175.904 -0.33 +0.01    +0.064 S 
ATOM      8  O   UNL     1     163.005 174.268 176.732 -0.71 -0.13    -0.153 OA
ATOM      9  O   UNL     1     165.027 172.800 176.476 -0.27 +0.02    -0.153 OA
BRANCH   7  10
ATOM     10  N   UNL     1     162.849 172.246 175.290 -0.19 -0.01    -0.176 NA
ATOM     11  C   UNL     1     161.522 171.975 175.852 -0.31 +0.02    +0.109 C 
ATOM     12  C   UNL     1     161.418 170.458 175.812 -0.46 -0.00    +0.018 C 
ATOM     13  C   UNL     1     162.158 170.115 174.530 -0.39 -0.00    +0.018 C 
ATOM     14  C   UNL     1     163.347 171.079 174.546 -0.15 -0.02    +0.109 C 
ENDBRANCH   7  10
ENDBRANCH   2   7
BRANCH   1  16
ATOM     15  C   UNL     1     164.598 177.043 176.579 +0.02 +0.11    +0.277 C 
ATOM     16  O   UNL     1     163.678 176.523 175.604 -0.42 -0.36    -0.493 OA
ENDBRANCH   1  16
BRANCH   4  17
ATOM     17  C   UNL     1     165.479 173.994 170.902 -0.07 -0.00    +0.340 C 
ATOM     18  O   UNL     1     166.611 173.956 170.443 -0.51 -0.10    -0.245 OA
BRANCH  17  19
ATOM     19  O   UNL     1     164.353 173.596 170.273 -0.10 +0.07    -0.456 OA
BRANCH  19  20
ATOM     20  C   UNL     1     164.536 172.522 169.335 -0.24 -0.04    +0.271 C 
BRANCH  20  21
ATOM     21  C   UNL     1     163.984 171.241 169.889 -0.11 -0.01    +0.025 A 
ATOM     22  C   UNL     1     164.396 170.785 171.145 -0.09 -0.03    +0.130 A 
ATOM     23  F   UNL     1     165.311 171.475 171.840 -0.05 +0.03    -0.205 F 
ATOM     24  C   UNL     1     163.864 169.627 171.706 -0.22 -0.01    +0.039 A 
ATOM     25  C   UNL     1     162.894 168.905 171.012 -0.33 -0.00    +0.003 A 
ATOM     26  C   UNL     1     162.461 169.349 169.764 -0.28 -0.00    +0.001 A 
ATOM     27  C   UNL     1     162.996 170.513 169.206 -0.17 -0.00    +0.010 A 
ENDBRANCH  20  21
ENDBRANCH  19  20
ENDBRANCH  17  19
ENDBRANCH   4  17
TORSDOF 7
TER
ENDMDL
