MODEL        1
USER    Run = 1
USER
USER    Estimated Free Energy of Binding    =  -4.27 kcal/mol  [=(1)+(2)+(3)-(4)]
USER
USER    (1) Final Intermolecular Energy     =  -6.36 kcal/mol
USER        vdW + Hbond + desolv Energy     =  -6.39 kcal/mol
USER        Electrostatic Energy            =  +0.03 kcal/mol
USER        Moving Ligand-Fixed Receptor    =  -6.36 kcal/mol
USER        Moving Ligand-Moving Receptor   =  +0.00 kcal/mol
USER    (2) Final Total Internal Energy     =  -3.21 kcal/mol
USER    (3) Torsional Free Energy           =  +2.09 kcal/mol
USER    (4) Unbound System's Energy         =  -3.21 kcal/mol
USER
USER
REMARK  Name = Z15461859
REMARK  10 active torsions:
REMARK  status: ('A' for Active; 'I' for Inactive)
REMARK    1  A    between atoms: C_1  and  C_2
REMARK    2  A    between atoms: C_2  and  C_3
REMARK    3  A    between atoms: C_7  and  C_8
REMARK    4  A    between atoms: C_9  and  N_10
REMARK    5  A    between atoms: C_11  and  C_13
REMARK    6  A    between atoms: C_13  and  O_14
REMARK    7  A    between atoms: O_14  and  C_15
REMARK    8  A    between atoms: C_15  and  C_17
REMARK    9  A    between atoms: N_19  and  C_20
REMARK   10  A    between atoms: C_20  and  C_21
REMARK                            x       y       z     vdW  Elec       q    Type
REMARK                         _______ _______ _______ _____ _____    ______ ____
USER                              x       y       z     vdW  Elec       q    Type
USER                           _______ _______ _______ _____ _____    ______ ____
ROOT
ATOM      1  O   UNL     1     164.881 175.414 174.564 +0.01 +0.02    -0.451 OA
ENDROOT
BRANCH   1   2
ATOM      2  C   UNL     1     164.028 175.253 173.529 -0.02 -0.08    +0.360 C 
ATOM      3  O   UNL     1     162.827 175.455 173.535 -0.20 +0.10    -0.243 OA
BRANCH   2   4
ATOM      4  C   UNL     1     164.761 174.741 172.283 -0.11 -0.04    +0.176 C 
ATOM      5  C   UNL     1     165.679 175.633 171.539 -0.12 -0.00    +0.021 A 
ATOM      6  C   UNL     1     166.209 175.141 170.348 -0.22 +0.00    +0.050 A 
ATOM      7  C   UNL     1     167.041 175.940 169.548 -0.22 +0.00    +0.014 A 
ATOM      8  C   UNL     1     167.350 177.238 169.945 -0.22 -0.00    +0.001 A 
ATOM      9  C   UNL     1     166.847 177.728 171.147 -0.13 -0.00    +0.001 A 
ATOM     10  C   UNL     1     165.900 173.767 169.921 -0.16 +0.07    +0.275 C 
ATOM     11  O   UNL     1     166.380 173.335 168.876 -0.91 -0.15    -0.266 OA
ATOM     12  N   UNL     1     165.074 173.028 170.764 -0.14 +0.00    -0.229 N 
ATOM     13  C   UNL     1     166.020 176.931 171.947 -0.09 -0.00    +0.011 A 
ATOM     14  N   UNL     1     164.489 173.524 171.907 -0.11 +0.03    -0.161 NA
BRANCH  12  15
ATOM     15  C   UNL     1     164.700 171.670 170.380 -0.22 -0.02    +0.144 C 
ATOM     16  C   UNL     1     163.711 171.655 169.225 -0.39 -0.01    +0.029 C 
ENDBRANCH  12  15
ENDBRANCH   2   4
ENDBRANCH   1   2
BRANCH   1  17
ATOM     17  C   UNL     1     164.452 174.856 175.813 -0.02 +0.08    +0.328 C 
BRANCH  17  20
ATOM     18  N   UNL     1     163.723 172.773 174.776 -0.07 +0.01    -0.282 N 
ATOM     19  H   UNL     1     163.631 173.382 173.972 +0.08 -0.01    +0.155 HD
ATOM     20  C   UNL     1     164.437 173.323 175.831 -0.09 -0.00    +0.255 C 
ATOM     21  O   UNL     1     165.089 172.686 176.655 -0.17 +0.05    -0.272 OA
BRANCH  18  23
ATOM     22  C   UNL     1     162.457 170.651 174.845 -0.25 +0.00    -0.026 A 
ATOM     23  C   UNL     1     163.621 171.382 174.523 -0.14 -0.01    +0.040 A 
ATOM     24  C   UNL     1     164.671 170.754 173.813 -0.25 +0.01    -0.029 A 
ATOM     25  C   UNL     1     165.985 171.443 173.554 -0.19 -0.02    +0.045 C 
ATOM     26  C   UNL     1     164.534 169.417 173.407 -0.36 -0.00    +0.005 A 
ATOM     27  C   UNL     1     163.384 168.699 173.708 -0.39 -0.00    +0.001 A 
ATOM     28  C   UNL     1     162.363 169.306 174.431 -0.35 -0.00    +0.005 A 
BRANCH  22  30
ATOM     29  C   UNL     1     159.973 170.472 175.088 -0.52 +0.00    +0.009 C 
ATOM     30  C   UNL     1     161.219 171.260 175.465 -0.42 +0.00    +0.033 C 
ENDBRANCH  22  30
ENDBRANCH  18  23
ENDBRANCH  17  20
ENDBRANCH   1  17
TORSDOF 7
TER
ENDMDL
