MODEL        1
USER    Run = 1
USER
USER    Estimated Free Energy of Binding    =  -5.80 kcal/mol  [=(1)+(2)+(3)-(4)]
USER
USER    (1) Final Intermolecular Energy     =  -7.29 kcal/mol
USER        vdW + Hbond + desolv Energy     =  -7.23 kcal/mol
USER        Electrostatic Energy            =  -0.06 kcal/mol
USER        Moving Ligand-Fixed Receptor    =  -7.29 kcal/mol
USER        Moving Ligand-Moving Receptor   =  +0.00 kcal/mol
USER    (2) Final Total Internal Energy     =  -2.13 kcal/mol
USER    (3) Torsional Free Energy           =  +1.49 kcal/mol
USER    (4) Unbound System's Energy         =  -2.13 kcal/mol
USER
USER
REMARK  Name = Z15485983
REMARK  6 active torsions:
REMARK  status: ('A' for Active; 'I' for Inactive)
REMARK    1  A    between atoms: C_1  and  C_2
REMARK    2  A    between atoms: C_2  and  O_3
REMARK    3  A    between atoms: C_2  and  C_15
REMARK    4  A    between atoms: O_3  and  C_4
REMARK    5  A    between atoms: C_4  and  C_6
REMARK    6  A    between atoms: N_17  and  C_18
REMARK                            x       y       z     vdW  Elec       q    Type
REMARK                         _______ _______ _______ _____ _____    ______ ____
USER                              x       y       z     vdW  Elec       q    Type
USER                           _______ _______ _______ _____ _____    ______ ____
ROOT
ATOM      1  C   UNL     1     161.845 166.652 177.856 -0.44 -0.01    +0.062 C 
ATOM      2  C   UNL     1     161.175 167.531 176.797 -0.27 -0.03    +0.259 C 
ENDROOT
BRANCH   2   3
ATOM      3  C   UNL     1     162.255 168.096 175.863 -0.19 -0.03    +0.258 C 
ATOM      4  N   UNL     1     161.937 169.302 175.252 -0.19 +0.02    -0.281 N 
ATOM      5  H   UNL     1     161.355 169.924 175.805 +0.11 -0.01    +0.155 HD
ATOM      6  O   UNL     1     163.306 167.487 175.667 -0.34 +0.05    -0.271 OA
BRANCH   4   7
ATOM      7  C   UNL     1     162.838 169.903 174.337 -0.27 -0.01    +0.052 A 
ATOM      8  C   UNL     1     163.220 171.245 174.481 -0.11 -0.01    +0.065 A 
ATOM      9 CL   UNL     1     162.555 172.228 175.737 -0.41 -0.01    -0.082 Cl
ATOM     10  C   UNL     1     164.208 171.787 173.657 -0.09 -0.01    +0.060 A 
ATOM     11  C   UNL     1     164.770 171.000 172.657 -0.19 -0.03    +0.125 A 
ATOM     12  F   UNL     1     165.736 171.510 171.882 -0.05 +0.02    -0.205 F 
ATOM     13  C   UNL     1     164.355 169.691 172.452 -0.27 -0.01    +0.040 A 
ATOM     14  C   UNL     1     163.389 169.142 173.295 -0.36 -0.01    +0.027 A 
ENDBRANCH   4   7
ENDBRANCH   2   3
BRANCH   2  15
ATOM     15  O   UNL     1     160.372 168.529 177.443 -0.24 +0.11    -0.449 OA
BRANCH  15  16
ATOM     16  C   UNL     1     159.257 168.862 176.736 -0.23 -0.09    +0.340 C 
ATOM     17  O   UNL     1     159.202 169.704 175.853 -0.38 +0.04    -0.245 OA
BRANCH  16  18
ATOM     18  C   UNL     1     158.070 168.066 177.148 -0.38 -0.03    +0.060 A 
ATOM     19  C   UNL     1     157.008 168.626 177.869 -0.40 -0.02    +0.032 A 
ATOM     20  C   UNL     1     155.932 167.792 178.228 -0.45 -0.02    +0.040 A 
ATOM     21  C   UNL     1     155.899 166.437 177.889 -0.38 -0.04    +0.078 A 
ATOM     22  N   UNL     1     154.775 165.745 178.312 -0.22 +0.12    -0.247 NA
ATOM     23  C   UNL     1     153.976 166.562 178.960 -0.25 -0.11    +0.157 A 
ATOM     24  C   UNL     1     156.975 165.892 177.168 -0.40 -0.01    +0.029 A 
ATOM     25  S   UNL     1     154.499 168.184 179.106 -0.50 +0.07    -0.075 S 
ATOM     26  C   UNL     1     158.053 166.709 176.806 -0.35 -0.01    +0.017 A 
ENDBRANCH  16  18
ENDBRANCH  15  16
ENDBRANCH   2  15
TORSDOF 5
TER
ENDMDL
