MODEL        1
USER    Run = 1
USER
USER    Estimated Free Energy of Binding    =  -3.90 kcal/mol  [=(1)+(2)+(3)-(4)]
USER
USER    (1) Final Intermolecular Energy     =  -5.98 kcal/mol
USER        vdW + Hbond + desolv Energy     =  -5.92 kcal/mol
USER        Electrostatic Energy            =  -0.06 kcal/mol
USER        Moving Ligand-Fixed Receptor    =  -5.98 kcal/mol
USER        Moving Ligand-Moving Receptor   =  +0.00 kcal/mol
USER    (2) Final Total Internal Energy     =  -3.20 kcal/mol
USER    (3) Torsional Free Energy           =  +2.09 kcal/mol
USER    (4) Unbound System's Energy         =  -3.20 kcal/mol
USER
USER
REMARK  Name = Z15462463
REMARK  9 active torsions:
REMARK  status: ('A' for Active; 'I' for Inactive)
REMARK    1  A    between atoms: C_1  and  C_2
REMARK    2  A    between atoms: C_2  and  C_3
REMARK    3  A    between atoms: C_8  and  N_9
REMARK    4  A    between atoms: C_10  and  C_12
REMARK    5  A    between atoms: C_12  and  O_13
REMARK    6  A    between atoms: O_13  and  C_14
REMARK    7  A    between atoms: C_14  and  C_16
REMARK    8  A    between atoms: N_18  and  C_19
REMARK    9  A    between atoms: C_19  and  C_20
REMARK                            x       y       z     vdW  Elec       q    Type
REMARK                         _______ _______ _______ _____ _____    ______ ____
USER                              x       y       z     vdW  Elec       q    Type
USER                           _______ _______ _______ _____ _____    ______ ____
ROOT
ATOM      1  C   UNL     1     164.212 175.402 173.739 -0.02 -0.07    +0.360 C 
ATOM      2  O   UNL     1     163.056 175.777 173.786 -0.20 +0.09    -0.243 OA
ENDROOT
BRANCH   1   3
ATOM      3  C   UNL     1     164.852 174.854 172.473 -0.10 -0.04    +0.176 C 
ATOM      4  C   UNL     1     165.716 175.724 171.653 -0.12 -0.00    +0.021 A 
ATOM      5  C   UNL     1     166.203 175.187 170.468 -0.21 +0.00    +0.050 A 
ATOM      6  C   UNL     1     166.964 175.971 169.592 -0.23 +0.00    +0.014 A 
ATOM      7  C   UNL     1     167.248 177.298 169.913 -0.22 -0.00    +0.001 A 
ATOM      8  C   UNL     1     166.792 177.829 171.118 -0.13 -0.00    +0.001 A 
ATOM      9  C   UNL     1     165.909 173.785 170.125 -0.15 +0.06    +0.275 C 
ATOM     10  O   UNL     1     166.365 173.306 169.089 -0.90 -0.17    -0.266 OA
ATOM     11  N   UNL     1     165.107 173.082 171.023 -0.13 +0.01    -0.229 N 
ATOM     12  C   UNL     1     166.027 177.048 171.990 -0.08 -0.00    +0.011 A 
ATOM     13  N   UNL     1     164.567 173.622 172.165 -0.11 +0.03    -0.161 NA
BRANCH  11  14
ATOM     14  C   UNL     1     164.723 171.709 170.711 -0.22 -0.02    +0.144 C 
ATOM     15  C   UNL     1     163.826 171.644 169.484 -0.36 -0.01    +0.029 C 
ENDBRANCH  11  14
ENDBRANCH   1   3
BRANCH   1  16
ATOM     16  O   UNL     1     165.113 175.368 174.745 +0.02 +0.02    -0.451 OA
BRANCH  16  17
ATOM     17  C   UNL     1     164.566 175.185 176.054 -0.02 +0.09    +0.328 C 
BRANCH  17  20
ATOM     18  N   UNL     1     163.941 173.039 175.070 -0.07 +0.00    -0.282 N 
ATOM     19  H   UNL     1     164.584 173.358 174.358 +0.09 -0.02    +0.155 HD
ATOM     20  C   UNL     1     163.855 173.842 176.197 -0.11 +0.07    +0.255 C 
ATOM     21  O   UNL     1     163.300 173.558 177.257 -0.34 -0.08    -0.272 OA
BRANCH  18  23
ATOM     22  C   UNL     1     163.953 170.752 174.186 -0.20 +0.01    -0.026 A 
ATOM     23  C   UNL     1     163.286 171.802 174.856 -0.15 -0.00    +0.037 A 
ATOM     24  C   UNL     1     161.962 171.601 175.277 -0.25 +0.00    +0.023 A 
ATOM     25  C   UNL     1     161.303 170.391 175.057 -0.42 -0.00    +0.002 A 
ATOM     26  C   UNL     1     161.947 169.361 174.391 -0.33 -0.00    +0.000 A 
ATOM     27  C   UNL     1     163.260 169.546 173.950 -0.34 -0.00    +0.005 A 
BRANCH  22  29
ATOM     28  C   UNL     1     166.388 170.843 174.900 -0.31 -0.01    +0.009 C 
ATOM     29  C   UNL     1     165.401 170.811 173.744 -0.30 -0.02    +0.033 C 
ENDBRANCH  22  29
ENDBRANCH  18  23
ENDBRANCH  17  20
ENDBRANCH  16  17
ENDBRANCH   1  16
TORSDOF 7
TER
ENDMDL
