MODEL        1
USER    Run = 1
USER
USER    Estimated Free Energy of Binding    =  -4.45 kcal/mol  [=(1)+(2)+(3)-(4)]
USER
USER    (1) Final Intermolecular Energy     =  -5.35 kcal/mol
USER        vdW + Hbond + desolv Energy     =  -5.37 kcal/mol
USER        Electrostatic Energy            =  +0.03 kcal/mol
USER        Moving Ligand-Fixed Receptor    =  -5.35 kcal/mol
USER        Moving Ligand-Moving Receptor   =  +0.00 kcal/mol
USER    (2) Final Total Internal Energy     =  -0.92 kcal/mol
USER    (3) Torsional Free Energy           =  +0.89 kcal/mol
USER    (4) Unbound System's Energy         =  -0.92 kcal/mol
USER
USER
REMARK  Name = Z15400282
REMARK  4 active torsions:
REMARK  status: ('A' for Active; 'I' for Inactive)
REMARK    1  A    between atoms: C_1  and  N_2
REMARK    2  A    between atoms: N_2  and  C_16
REMARK    3  A    between atoms: C_3  and  C_5
REMARK    4  A    between atoms: C_5  and  N_6
REMARK                            x       y       z     vdW  Elec       q    Type
REMARK                         _______ _______ _______ _____ _____    ______ ____
USER                              x       y       z     vdW  Elec       q    Type
USER                           _______ _______ _______ _____ _____    ______ ____
ROOT
ATOM      1  C   UNL     1     164.799 169.832 173.127 -0.22 -0.08    +0.224 C 
ENDROOT
BRANCH   1   2
ATOM      2  N   UNL     1     164.303 170.176 171.815 -0.17 +0.07    -0.265 N 
ATOM      3  C   UNL     1     164.612 171.306 171.095 -0.20 -0.02    +0.091 A 
ATOM      4  C   UNL     1     163.863 171.239 169.936 -0.01 -0.05    +0.157 A 
ATOM      5  C   UNL     1     163.905 172.236 168.981 -0.31 -0.01    +0.048 A 
ATOM      6  C   UNL     1     164.737 173.332 169.234 -0.37 -0.00    +0.004 A 
ATOM      7  C   UNL     1     165.500 173.396 170.414 -0.29 +0.00    +0.002 A 
ATOM      8  O   UNL     1     163.083 170.095 169.873 -0.11 +0.17    -0.407 OA
ATOM      9  C   UNL     1     165.446 172.368 171.363 -0.21 +0.00    +0.029 A 
ATOM     10  C   UNL     1     163.379 169.459 171.087 +0.17 -0.15    +0.422 A 
ATOM     11  O   UNL     1     162.850 168.413 171.443 -0.38 +0.09    -0.223 OA
ENDBRANCH   1   2
BRANCH   1  14
ATOM     12  C   UNL     1     163.668 167.408 174.480 -0.37 -0.03    +0.138 C 
ATOM     13  N   UNL     1     163.114 168.744 174.709 -0.17 +0.05    -0.273 N 
ATOM     14  C   UNL     1     163.719 169.920 174.228 -0.14 -0.06    +0.239 C 
ATOM     15  O   UNL     1     163.413 171.049 174.633 -0.16 +0.05    -0.273 OA
BRANCH  13  16
ATOM     16  C   UNL     1     161.895 168.794 175.505 -0.30 -0.00    +0.036 A 
ATOM     17  C   UNL     1     161.655 167.868 176.539 -0.39 -0.00    +0.023 A 
ATOM     18  C   UNL     1     160.472 167.887 177.289 -0.46 -0.00    +0.002 A 
ATOM     19  C   UNL     1     159.486 168.825 177.016 -0.49 -0.00    +0.000 A 
ATOM     20  C   UNL     1     159.690 169.744 175.995 -0.39 -0.00    +0.002 A 
ATOM     21  C   UNL     1     160.880 169.729 175.252 -0.40 -0.00    +0.023 A 
ENDBRANCH  13  16
ENDBRANCH   1  14
TORSDOF 3
TER
ENDMDL
