MODEL        1
USER    Run = 1
USER
USER    Estimated Free Energy of Binding    =  -4.34 kcal/mol  [=(1)+(2)+(3)-(4)]
USER
USER    (1) Final Intermolecular Energy     =  -5.83 kcal/mol
USER        vdW + Hbond + desolv Energy     =  -5.78 kcal/mol
USER        Electrostatic Energy            =  -0.05 kcal/mol
USER        Moving Ligand-Fixed Receptor    =  -5.83 kcal/mol
USER        Moving Ligand-Moving Receptor   =  +0.00 kcal/mol
USER    (2) Final Total Internal Energy     =  -2.35 kcal/mol
USER    (3) Torsional Free Energy           =  +1.49 kcal/mol
USER    (4) Unbound System's Energy         =  -2.35 kcal/mol
USER
USER
REMARK  Name = Z15479036
REMARK  8 active torsions:
REMARK  status: ('A' for Active; 'I' for Inactive)
REMARK    1  A    between atoms: C_1  and  C_2
REMARK    2  A    between atoms: C_3  and  N_4
REMARK    3  A    between atoms: C_5  and  C_7
REMARK    4  A    between atoms: C_7  and  S_8
REMARK    5  A    between atoms: S_8  and  C_9
REMARK    6  A    between atoms: N_17  and  C_18
REMARK    7  A    between atoms: N_21  and  C_22
REMARK    8  A    between atoms: N_28  and  C_29
REMARK                            x       y       z     vdW  Elec       q    Type
REMARK                         _______ _______ _______ _____ _____    ______ ____
USER                              x       y       z     vdW  Elec       q    Type
USER                           _______ _______ _______ _____ _____    ______ ____
ROOT
ATOM      1  N   UNL     1     163.648 173.586 174.357 -0.04 -0.01    -0.279 N 
ATOM      2  H   UNL     1     163.441 173.963 173.424 +0.07 -0.02    +0.155 HD
ATOM      3  C   UNL     1     164.502 174.366 175.117 -0.06 +0.01    +0.228 C 
ATOM      4  O   UNL     1     165.246 173.952 176.000 -0.13 +0.01    -0.275 OA
ENDROOT
BRANCH   1  12
ATOM      5  C   UNL     1     165.337 171.041 173.253 -0.28 -0.03    +0.067 C 
ATOM      6  C   UNL     1     164.040 171.135 173.998 -0.18 -0.01    +0.059 A 
ATOM      7  N   UNL     1     163.354 169.960 174.350 -0.12 +0.06    -0.282 N 
ATOM      8  C   UNL     1     163.984 168.650 174.363 -0.32 -0.05    +0.171 C 
ATOM      9  N   UNL     1     162.265 170.324 175.196 -0.20 +0.02    -0.216 N 
ATOM     10  C   UNL     1     162.326 171.721 175.359 -0.04 +0.01    +0.293 A 
ATOM     11  O   UNL     1     161.679 172.470 176.077 -0.30 -0.10    -0.264 OA
ATOM     12  C   UNL     1     163.428 172.236 174.472 +0.06 -0.01    +0.121 A 
BRANCH   9  13
ATOM     13  C   UNL     1     161.281 169.445 175.756 -0.36 -0.00    +0.067 A 
ATOM     14  C   UNL     1     161.592 168.223 176.368 -0.38 -0.00    +0.028 A 
ATOM     15  C   UNL     1     160.643 167.488 177.095 -0.43 -0.00    +0.002 A 
ATOM     16  C   UNL     1     159.320 167.900 177.131 -0.43 -0.00    +0.000 A 
ATOM     17  C   UNL     1     158.947 169.025 176.409 -0.35 -0.00    +0.002 A 
ATOM     18  C   UNL     1     159.917 169.787 175.738 -0.40 -0.00    +0.028 A 
ENDBRANCH   9  13
ENDBRANCH   1  12
BRANCH   3  19
ATOM     19  C   UNL     1     164.477 175.847 174.761 -0.07 +0.01    +0.173 C 
BRANCH  19  20
ATOM     20  S   UNL     1     165.809 176.258 173.603 -0.11 +0.01    -0.078 S 
BRANCH  20  21
ATOM     21  C   UNL     1     165.370 175.324 172.213 -0.04 -0.04    +0.170 A 
ATOM     22  N   UNL     1     166.299 174.842 171.323 -0.04 +0.01    -0.322 N 
ATOM     23  C   UNL     1     167.724 175.063 171.361 -0.09 +0.00    +0.151 C 
ATOM     24  C   UNL     1     165.622 174.108 170.374 -0.23 +0.00    +0.069 A 
ATOM     25  C   UNL     1     164.284 174.222 170.746 -0.17 -0.02    +0.090 A 
ATOM     26  C   UNL     1     163.304 173.579 169.975 -0.14 -0.01    +0.030 A 
ATOM     27  C   UNL     1     163.695 172.822 168.864 -0.35 -0.00    +0.002 A 
ATOM     28  C   UNL     1     165.040 172.725 168.510 -0.26 -0.00    +0.002 A 
ATOM     29  C   UNL     1     166.033 173.372 169.253 -0.27 +0.01    +0.028 A 
ATOM     30  N   UNL     1     164.145 174.990 171.881 -0.11 +0.07    -0.222 NA
ENDBRANCH  20  21
ENDBRANCH  19  20
ENDBRANCH   3  19
TORSDOF 5
TER
ENDMDL
