MODEL        1
USER    Run = 1
USER
USER    Estimated Free Energy of Binding    =  -5.50 kcal/mol  [=(1)+(2)+(3)-(4)]
USER
USER    (1) Final Intermolecular Energy     =  -7.29 kcal/mol
USER        vdW + Hbond + desolv Energy     =  -7.24 kcal/mol
USER        Electrostatic Energy            =  -0.05 kcal/mol
USER        Moving Ligand-Fixed Receptor    =  -7.29 kcal/mol
USER        Moving Ligand-Moving Receptor   =  +0.00 kcal/mol
USER    (2) Final Total Internal Energy     =  -1.84 kcal/mol
USER    (3) Torsional Free Energy           =  +1.79 kcal/mol
USER    (4) Unbound System's Energy         =  -1.84 kcal/mol
USER
USER
REMARK  Name = Z15400101
REMARK  7 active torsions:
REMARK  status: ('A' for Active; 'I' for Inactive)
REMARK    1  A    between atoms: C_1  and  C_2
REMARK    2  A    between atoms: C_2  and  C_3
REMARK    3  A    between atoms: C_2  and  N_20
REMARK    4  A    between atoms: N_5  and  C_6
REMARK    5  A    between atoms: C_9  and  O_10
REMARK    6  A    between atoms: O_10  and  C_11
REMARK    7  A    between atoms: C_11  and  C_12
REMARK                            x       y       z     vdW  Elec       q    Type
REMARK                         _______ _______ _______ _____ _____    ______ ____
USER                              x       y       z     vdW  Elec       q    Type
USER                           _______ _______ _______ _____ _____    ______ ____
ROOT
ATOM      1  C   UNL     1     163.791 169.690 174.023 -0.21 -0.06    +0.240 C 
ATOM      2  N   UNL     1     162.885 170.323 174.861 -0.07 +0.04    -0.284 N 
ATOM      3  H   UNL     1     162.974 171.335 174.979 +0.10 -0.01    +0.155 HD
ATOM      4  O   UNL     1     163.700 168.531 173.616 -0.28 +0.06    -0.273 OA
ENDROOT
BRANCH   2   5
ATOM      5  C   UNL     1     161.753 169.712 175.447 -0.33 -0.00    +0.034 A 
ATOM      6  C   UNL     1     161.896 168.480 176.092 -0.28 -0.00    +0.027 A 
ATOM      7  C   UNL     1     160.790 167.870 176.707 -0.39 -0.01    +0.047 A 
ATOM      8  C   UNL     1     159.532 168.472 176.656 -0.32 -0.03    +0.121 A 
ATOM      9  C   UNL     1     159.392 169.697 176.014 -0.28 -0.01    +0.047 A 
ATOM     10  C   UNL     1     160.486 170.297 175.399 -0.45 -0.00    +0.027 A 
BRANCH   8  11
ATOM     11  O   UNL     1     158.503 167.793 177.251 -0.15 +0.19    -0.487 OA
BRANCH  11  12
ATOM     12  C   UNL     1     157.333 168.581 177.503 -0.30 -0.16    +0.264 C 
BRANCH  12  13
ATOM     13  C   UNL     1     156.247 167.704 178.064 -0.48 +0.01    -0.010 A 
ATOM     14  C   UNL     1     156.204 166.345 177.724 -0.43 -0.00    +0.007 A 
ATOM     15  C   UNL     1     155.185 165.529 178.209 -0.31 -0.00    +0.000 A 
ATOM     16  C   UNL     1     154.196 166.065 179.030 -0.38 -0.00    +0.000 A 
ATOM     17  C   UNL     1     154.220 167.419 179.361 -0.40 -0.00    +0.000 A 
ATOM     18  C   UNL     1     155.239 168.240 178.877 -0.36 -0.01    +0.007 A 
ENDBRANCH  12  13
ENDBRANCH  11  12
ENDBRANCH   8  11
ENDBRANCH   2   5
BRANCH   1  20
ATOM     19  C   UNL     1     166.083 170.505 174.717 -0.24 -0.03    +0.041 C 
ATOM     20  C   UNL     1     165.024 170.506 173.619 -0.23 -0.07    +0.177 C 
BRANCH  20  21
ATOM     21  N   UNL     1     164.687 171.834 173.144 -0.08 +0.06    -0.263 N 
ATOM     22  C   UNL     1     164.811 172.275 171.844 -0.13 -0.01    +0.091 A 
ATOM     23  C   UNL     1     164.571 173.634 171.882 -0.04 -0.03    +0.157 A 
ATOM     24  C   UNL     1     164.655 174.421 170.753 -0.19 -0.01    +0.048 A 
ATOM     25  C   UNL     1     164.973 173.785 169.549 -0.33 -0.00    +0.004 A 
ATOM     26  C   UNL     1     165.189 172.395 169.506 -0.38 +0.00    +0.002 A 
ATOM     27  O   UNL     1     164.262 174.090 173.154 -0.04 +0.07    -0.407 OA
ATOM     28  C   UNL     1     165.113 171.620 170.668 -0.23 -0.00    +0.029 A 
ATOM     29  C   UNL     1     164.344 172.922 173.916 +0.14 -0.06    +0.422 A 
ATOM     30  O   UNL     1     164.118 172.885 175.125 -0.16 +0.01    -0.223 OA
ENDBRANCH  20  21
ENDBRANCH   1  20
TORSDOF 6
TER
ENDMDL
