MODEL        1
USER    Run = 1
USER
USER    Estimated Free Energy of Binding    =  -4.25 kcal/mol  [=(1)+(2)+(3)-(4)]
USER
USER    (1) Final Intermolecular Energy     =  -6.04 kcal/mol
USER        vdW + Hbond + desolv Energy     =  -6.02 kcal/mol
USER        Electrostatic Energy            =  -0.02 kcal/mol
USER        Moving Ligand-Fixed Receptor    =  -6.04 kcal/mol
USER        Moving Ligand-Moving Receptor   =  +0.00 kcal/mol
USER    (2) Final Total Internal Energy     =  -2.92 kcal/mol
USER    (3) Torsional Free Energy           =  +1.79 kcal/mol
USER    (4) Unbound System's Energy         =  -2.92 kcal/mol
USER
USER
REMARK  Name = Z15462504
REMARK  9 active torsions:
REMARK  status: ('A' for Active; 'I' for Inactive)
REMARK    1  A    between atoms: C_1  and  C_2
REMARK    2  A    between atoms: C_2  and  N_3
REMARK    3  A    between atoms: C_5  and  C_6
REMARK    4  A    between atoms: C_6  and  O_8
REMARK    5  A    between atoms: O_8  and  C_9
REMARK    6  A    between atoms: C_9  and  C_10
REMARK    7  A    between atoms: N_12  and  C_13
REMARK    8  A    between atoms: C_15  and  C_16
REMARK    9  A    between atoms: C_19  and  C_20
REMARK                            x       y       z     vdW  Elec       q    Type
REMARK                         _______ _______ _______ _____ _____    ______ ____
USER                              x       y       z     vdW  Elec       q    Type
USER                           _______ _______ _______ _____ _____    ______ ____
ROOT
ATOM      1  C   UNL     1     164.291 175.397 173.696 -0.01 -0.07    +0.360 C 
ATOM      2  O   UNL     1     163.132 175.785 173.732 -0.20 +0.10    -0.243 OA
ENDROOT
BRANCH   1  11
ATOM      3  N   UNL     1     165.140 173.160 170.885 -0.14 +0.00    -0.229 N 
ATOM      4  C   UNL     1     165.937 173.886 170.005 -0.16 +0.06    +0.275 C 
ATOM      5  O   UNL     1     166.371 173.449 168.943 -0.90 -0.15    -0.266 OA
ATOM      6  C   UNL     1     166.294 175.253 170.424 -0.21 +0.00    +0.050 A 
ATOM      7  C   UNL     1     165.829 175.747 171.639 -0.12 -0.00    +0.021 A 
ATOM      8  C   UNL     1     166.228 177.023 172.059 -0.08 -0.00    +0.011 A 
ATOM      9  C   UNL     1     167.068 177.797 171.254 -0.11 -0.00    +0.001 A 
ATOM     10  C   UNL     1     167.518 177.304 170.031 -0.21 -0.00    +0.001 A 
ATOM     11  C   UNL     1     164.938 174.870 172.419 -0.10 -0.04    +0.176 C 
ATOM     12  C   UNL     1     167.133 176.031 169.615 -0.23 +0.00    +0.014 A 
ATOM     13  N   UNL     1     164.635 173.655 172.064 -0.12 +0.03    -0.161 NA
BRANCH   3  15
ATOM     14  C   UNL     1     163.839 171.597 169.506 -0.35 -0.01    +0.029 C 
ATOM     15  C   UNL     1     164.874 171.752 170.610 -0.22 -0.01    +0.144 C 
ENDBRANCH   3  15
ENDBRANCH   1  11
BRANCH   1  16
ATOM     16  O   UNL     1     165.141 175.358 174.731 +0.02 +0.02    -0.451 OA
BRANCH  16  17
ATOM     17  C   UNL     1     164.528 175.111 175.997 -0.02 +0.09    +0.328 C 
BRANCH  17  18
ATOM     18  C   UNL     1     163.893 173.720 176.142 -0.11 +0.06    +0.255 C 
ATOM     19  N   UNL     1     163.920 172.965 174.977 -0.07 +0.01    -0.282 N 
ATOM     20  H   UNL     1     164.519 173.315 174.231 +0.09 -0.02    +0.155 HD
ATOM     21  O   UNL     1     163.435 173.371 177.227 -0.31 -0.06    -0.272 OA
BRANCH  19  22
ATOM     22  C   UNL     1     163.375 171.670 174.794 -0.14 -0.00    +0.037 A 
ATOM     23  C   UNL     1     164.136 170.665 174.159 -0.21 +0.01    -0.029 A 
ATOM     24  C   UNL     1     165.555 170.870 173.699 -0.28 -0.02    +0.045 C 
ATOM     25  C   UNL     1     163.564 169.393 173.960 -0.35 -0.00    +0.005 A 
ATOM     26  C   UNL     1     162.285 169.097 174.431 -0.34 -0.00    +0.003 A 
ATOM     27  C   UNL     1     161.541 170.074 175.087 -0.38 +0.00    -0.049 A 
ATOM     28  C   UNL     1     160.202 169.746 175.678 -0.49 -0.00    +0.044 C 
ATOM     29  C   UNL     1     162.082 171.357 175.235 -0.28 +0.00    +0.027 A 
ENDBRANCH  19  22
ENDBRANCH  17  18
ENDBRANCH  16  17
ENDBRANCH   1  16
TORSDOF 6
TER
ENDMDL
