MODEL        1
USER    Run = 1
USER
USER    Estimated Free Energy of Binding    =  -6.45 kcal/mol  [=(1)+(2)+(3)-(4)]
USER
USER    (1) Final Intermolecular Energy     =  -8.24 kcal/mol
USER        vdW + Hbond + desolv Energy     =  -7.96 kcal/mol
USER        Electrostatic Energy            =  -0.28 kcal/mol
USER        Moving Ligand-Fixed Receptor    =  -8.24 kcal/mol
USER        Moving Ligand-Moving Receptor   =  +0.00 kcal/mol
USER    (2) Final Total Internal Energy     =  -2.32 kcal/mol
USER    (3) Torsional Free Energy           =  +1.79 kcal/mol
USER    (4) Unbound System's Energy         =  -2.32 kcal/mol
USER
USER
REMARK  Name = Z15572645
REMARK  10 active torsions:
REMARK  status: ('A' for Active; 'I' for Inactive)
REMARK    1  A    between atoms: C_1  and  C_2
REMARK    2  A    between atoms: C_2  and  S_3
REMARK    3  A    between atoms: C_2  and  C_24
REMARK    4  A    between atoms: S_3  and  C_4
REMARK    5  A    between atoms: C_7  and  C_8
REMARK    6  A    between atoms: C_11  and  C_14
REMARK    7  A    between atoms: C_14  and  C_15
REMARK    8  A    between atoms: C_14  and  C_16
REMARK    9  A    between atoms: C_14  and  C_17
REMARK   10  A    between atoms: N_18  and  C_19
REMARK                            x       y       z     vdW  Elec       q    Type
REMARK                         _______ _______ _______ _____ _____    ______ ____
USER                              x       y       z     vdW  Elec       q    Type
USER                           _______ _______ _______ _____ _____    ______ ____
ROOT
ATOM      1  C   UNL     1     163.351 171.216 174.858 +0.04 -0.03    +0.193 A 
ATOM      2  N   UNL     1     162.624 170.047 174.879 -0.11 +0.04    -0.299 N 
ATOM      3  C   UNL     1     161.551 170.318 175.746 -0.24 -0.00    +0.165 A 
ATOM      4  N   UNL     1     161.604 171.600 176.071 -0.34 -0.02    -0.128 NA
ATOM      5  N   UNL     1     162.742 172.145 175.553 -0.25 -0.01    -0.122 NA
ENDROOT
BRANCH   3   6
ATOM      6  C   UNL     1     160.514 169.393 176.255 -0.45 -0.00    +0.019 A 
ATOM      7  C   UNL     1     159.153 169.709 176.262 -0.10 -0.00    +0.012 A 
ATOM      8  C   UNL     1     158.188 168.803 176.717 -0.15 -0.00    +0.005 A 
ATOM      9  C   UNL     1     158.530 167.497 177.102 -0.38 +0.02    -0.042 A 
ATOM     10  C   UNL     1     159.890 167.173 177.088 -0.24 -0.00    +0.005 A 
ATOM     11  C   UNL     1     160.866 168.105 176.677 -0.43 -0.00    +0.012 A 
BRANCH   9  12
ATOM     12  C   UNL     1     157.405 166.497 177.444 -0.49 +0.01    -0.013 C 
ATOM     13  C   UNL     1     158.017 165.238 178.109 -0.28 -0.01    +0.015 C 
ATOM     14  C   UNL     1     156.660 166.059 176.165 -0.40 -0.01    +0.015 C 
ATOM     15  C   UNL     1     156.358 167.059 178.428 -0.47 -0.01    +0.015 C 
ENDBRANCH   9  12
ENDBRANCH   3   6
BRANCH   2  16
ATOM     16  C   UNL     1     162.842 168.777 174.220 -0.36 -0.01    +0.091 C 
ATOM     17  C   UNL     1     163.958 167.800 174.631 -0.48 -0.01    +0.025 C 
ATOM     18  C   UNL     1     164.254 166.949 173.391 -0.31 -0.00    +0.002 C 
ATOM     19  C   UNL     1     163.365 167.489 172.282 -0.25 -0.00    +0.002 C 
ATOM     20  C   UNL     1     163.061 168.913 172.710 -0.43 -0.01    +0.025 C 
ENDBRANCH   2  16
BRANCH   1  21
ATOM     21  S   UNL     1     164.912 171.469 174.161 -0.34 +0.02    -0.073 S 
BRANCH  21  23
ATOM     22  C   UNL     1     165.624 171.936 171.557 -0.28 -0.00    +0.029 C 
ATOM     23  C   UNL     1     164.468 172.172 172.531 -0.00 -0.03    +0.137 C 
BRANCH  23  24
ATOM     24  C   UNL     1     164.246 173.674 172.680 +0.15 -0.04    +0.234 C 
ATOM     25  N   UNL     1     164.035 174.100 173.981 -0.08 +0.02    -0.239 N 
ATOM     26  H   UNL     1     164.068 173.424 174.739 +0.09 -0.00    +0.159 HD
ATOM     27  C   UNL     1     163.729 175.363 174.399 -0.04 +0.03    +0.303 C 
ATOM     28  N   UNL     1     163.734 176.334 173.460 +0.03 +0.18    -0.313 N 
ATOM     29  H   UNL     1     163.415 177.257 173.712 -0.53 -0.14    +0.146 HD
ATOM     30  H   UNL     1     163.812 176.088 172.477 -0.12 -0.10    +0.146 HD
ATOM     31  O   UNL     1     163.465 175.611 175.570 -0.54 -0.22    -0.253 OA
ATOM     32  O   UNL     1     164.294 174.448 171.723 -0.17 +0.06    -0.274 OA
ENDBRANCH  23  24
ENDBRANCH  21  23
ENDBRANCH   1  21
TORSDOF 6
TER
ENDMDL
