MODEL        1
USER    Run = 1
USER
USER    Estimated Free Energy of Binding    =  -4.77 kcal/mol  [=(1)+(2)+(3)-(4)]
USER
USER    (1) Final Intermolecular Energy     =  -6.85 kcal/mol
USER        vdW + Hbond + desolv Energy     =  -6.55 kcal/mol
USER        Electrostatic Energy            =  -0.31 kcal/mol
USER        Moving Ligand-Fixed Receptor    =  -6.85 kcal/mol
USER        Moving Ligand-Moving Receptor   =  +0.00 kcal/mol
USER    (2) Final Total Internal Energy     =  -3.16 kcal/mol
USER    (3) Torsional Free Energy           =  +2.09 kcal/mol
USER    (4) Unbound System's Energy         =  -3.16 kcal/mol
USER
USER
REMARK  Name = Z15589905
REMARK  7 active torsions:
REMARK  status: ('A' for Active; 'I' for Inactive)
REMARK    1  A    between atoms: C_7  and  C_8
REMARK    2  A    between atoms: C_11  and  S_12
REMARK    3  A    between atoms: S_12  and  C_13
REMARK    4  A    between atoms: C_13  and  C_14
REMARK    5  A    between atoms: N_16  and  C_17
REMARK    6  A    between atoms: N_23  and  C_24
REMARK    7  A    between atoms: C_24  and  C_25
REMARK                            x       y       z     vdW  Elec       q    Type
REMARK                         _______ _______ _______ _____ _____    ______ ____
USER                              x       y       z     vdW  Elec       q    Type
USER                           _______ _______ _______ _____ _____    ______ ____
ROOT
ATOM      1  C   UNL     1     165.091 172.221 173.687 -0.07 -0.04    +0.167 A 
ATOM      2  N   UNL     1     164.658 171.339 172.706 -0.09 +0.07    -0.298 N 
ATOM      3  C   UNL     1     164.367 172.107 171.605 +0.16 -0.03    +0.193 A 
ATOM      4  N   UNL     1     164.491 173.374 171.905 -0.13 +0.02    -0.122 NA
ATOM      5  N   UNL     1     164.962 173.447 173.186 -0.10 +0.02    -0.128 NA
ENDROOT
BRANCH   1   8
ATOM      6 CL   UNL     1     164.450 174.207 176.054 -0.32 -0.01    -0.083 Cl
ATOM      7  C   UNL     1     165.518 172.843 176.099 -0.15 -0.01    +0.052 A 
ATOM      8  C   UNL     1     165.665 171.941 175.021 -0.10 -0.01    +0.038 A 
ATOM      9  C   UNL     1     166.502 170.830 175.233 -0.23 -0.01    +0.013 A 
ATOM     10  C   UNL     1     167.181 170.635 176.442 -0.28 -0.00    +0.001 A 
ATOM     11  C   UNL     1     167.067 171.566 177.466 -0.26 -0.00    +0.002 A 
ATOM     12  C   UNL     1     166.229 172.664 177.298 -0.27 -0.01    +0.021 A 
ENDBRANCH   1   8
BRANCH   2  13
ATOM     13  C   UNL     1     164.594 169.886 172.743 -0.26 -0.05    +0.161 C 
BRANCH  13  14
ATOM     14  C   UNL     1     163.599 169.285 173.702 -0.35 +0.01    -0.028 A 
ATOM     15  C   UNL     1     162.558 170.112 174.158 -0.29 -0.00    +0.005 A 
ATOM     16  C   UNL     1     161.711 169.697 175.186 -0.39 -0.00    +0.000 A 
ATOM     17  C   UNL     1     161.890 168.446 175.768 -0.34 -0.00    +0.000 A 
ATOM     18  C   UNL     1     162.901 167.603 175.309 -0.38 -0.00    +0.000 A 
ATOM     19  C   UNL     1     163.756 168.020 174.285 -0.44 -0.00    +0.005 A 
ENDBRANCH  13  14
ENDBRANCH   2  13
BRANCH   3  20
ATOM     20  S   UNL     1     163.991 171.479 170.037 -0.30 +0.02    -0.077 S 
BRANCH  20  21
ATOM     21  C   UNL     1     164.331 172.879 168.939 -0.26 -0.05    +0.173 C 
BRANCH  21  22
ATOM     22  C   UNL     1     165.761 173.380 169.069 -0.25 +0.04    +0.224 C 
ATOM     23  N   UNL     1     165.899 174.490 169.869 -0.15 -0.03    -0.312 N 
ATOM     24  H   UNL     1     165.078 174.820 170.376 +0.09 -0.01    +0.149 HD
ATOM     25  O   UNL     1     166.698 172.857 168.470 -0.60 -0.23    -0.275 OA
BRANCH  23  26
ATOM     26  C   UNL     1     167.137 175.240 170.016 -0.08 +0.01    +0.073 C 
ATOM     27  C   UNL     1     167.734 175.016 171.415 -0.16 +0.00    +0.022 C 
ATOM     28  C   UNL     1     166.895 175.655 172.526 -0.08 -0.00    +0.002 C 
ATOM     29  C   UNL     1     166.573 177.121 172.247 -0.09 -0.00    +0.000 C 
ATOM     30  C   UNL     1     165.996 177.336 170.853 -0.09 -0.00    +0.002 C 
ATOM     31  C   UNL     1     166.903 176.738 169.779 -0.27 -0.00    +0.022 C 
ENDBRANCH  23  26
ENDBRANCH  21  22
ENDBRANCH  20  21
ENDBRANCH   3  20
TORSDOF 7
TER
ENDMDL
