MODEL        1
USER    Run = 1
USER
USER    Estimated Free Energy of Binding    =  -4.73 kcal/mol  [=(1)+(2)+(3)-(4)]
USER
USER    (1) Final Intermolecular Energy     =  -7.11 kcal/mol
USER        vdW + Hbond + desolv Energy     =  -6.90 kcal/mol
USER        Electrostatic Energy            =  -0.22 kcal/mol
USER        Moving Ligand-Fixed Receptor    =  -7.11 kcal/mol
USER        Moving Ligand-Moving Receptor   =  +0.00 kcal/mol
USER    (2) Final Total Internal Energy     =  -1.62 kcal/mol
USER    (3) Torsional Free Energy           =  +2.39 kcal/mol
USER    (4) Unbound System's Energy         =  -1.62 kcal/mol
USER
USER
REMARK  Name = Z15555445
REMARK  10 active torsions:
REMARK  status: ('A' for Active; 'I' for Inactive)
REMARK    1  A    between atoms: C_1  and  C_2
REMARK    2  A    between atoms: C_2  and  O_3
REMARK    3  A    between atoms: O_3  and  C_4
REMARK    4  A    between atoms: C_7  and  N_8
REMARK    5  A    between atoms: C_9  and  C_11
REMARK    6  A    between atoms: C_11  and  N_12
REMARK    7  A    between atoms: C_16  and  C_17
REMARK    8  A    between atoms: C_17  and  C_18
REMARK    9  A    between atoms: C_18  and  S_19
REMARK   10  A    between atoms: S_19  and  C_20
REMARK                            x       y       z     vdW  Elec       q    Type
REMARK                         _______ _______ _______ _____ _____    ______ ____
USER                              x       y       z     vdW  Elec       q    Type
USER                           _______ _______ _______ _____ _____    ______ ____
ROOT
ATOM      1  N   UNL     1     163.329 169.143 173.517 -0.19 +0.06    -0.284 N 
ATOM      2  H   UNL     1     162.322 169.159 173.363 +0.10 -0.02    +0.155 HD
ATOM      3  C   UNL     1     163.813 168.248 174.462 -0.31 -0.06    +0.235 C 
ATOM      4  O   UNL     1     164.934 168.278 174.966 -0.36 +0.10    -0.274 OA
ENDROOT
BRANCH   1   8
ATOM      5  C   UNL     1     165.587 172.170 171.606 -0.15 -0.00    +0.121 A 
ATOM      6  C   UNL     1     165.617 172.021 172.992 -0.17 -0.01    +0.047 A 
ATOM      7  C   UNL     1     164.858 171.012 173.607 -0.25 -0.01    +0.027 A 
ATOM      8  C   UNL     1     164.089 170.126 172.842 -0.30 -0.01    +0.034 A 
ATOM      9  C   UNL     1     164.091 170.272 171.454 -0.18 -0.01    +0.027 A 
ATOM     10  C   UNL     1     164.842 171.278 170.841 -0.18 -0.01    +0.047 A 
BRANCH   5  11
ATOM     11  O   UNL     1     166.248 173.127 170.890 -0.20 -0.19    -0.492 OA
BRANCH  11  13
ATOM     12  C   UNL     1     166.411 175.243 169.816 -0.29 +0.00    +0.048 C 
ATOM     13  C   UNL     1     165.465 174.226 170.427 -0.17 +0.00    +0.226 C 
ENDBRANCH  11  13
ENDBRANCH   5  11
ENDBRANCH   1   8
BRANCH   3  14
ATOM     14  C   UNL     1     162.775 167.244 174.951 -0.14 -0.03    +0.214 C 
BRANCH  14  15
ATOM     15  N   UNL     1     161.952 167.919 175.927 -0.27 +0.02    -0.216 N 
ATOM     16  C   UNL     1     161.181 169.023 175.687 -0.21 -0.01    +0.244 C 
ATOM     17  O   UNL     1     161.126 169.661 174.646 -0.32 -0.00    -0.273 OA
ATOM     18  C   UNL     1     160.366 169.320 176.950 -0.40 -0.03    +0.162 C 
ATOM     19  N   UNL     1     160.922 168.328 177.844 -0.25 +0.07    -0.288 N 
ATOM     20  H   UNL     1     160.733 168.251 178.834 -0.26 -0.10    +0.151 HD
ATOM     21  C   UNL     1     161.814 167.501 177.210 -0.17 -0.03    +0.310 C 
ATOM     22  O   UNL     1     162.371 166.546 177.728 -0.36 +0.04    -0.252 OA
BRANCH  18  23
ATOM     23  C   UNL     1     158.878 169.098 176.679 -0.42 -0.01    +0.042 C 
BRANCH  23  24
ATOM     24  C   UNL     1     158.348 167.727 177.099 -0.45 -0.03    +0.071 C 
BRANCH  24  25
ATOM     25  S   UNL     1     156.662 167.831 177.779 -0.59 +0.10    -0.164 S 
ATOM     26  C   UNL     1     156.251 166.070 177.781 -0.42 -0.04    +0.084 C 
ENDBRANCH  24  25
ENDBRANCH  23  24
ENDBRANCH  18  23
ENDBRANCH  14  15
ENDBRANCH   3  14
TORSDOF 8
TER
ENDMDL
