MODEL        1
USER    Run = 1
USER
USER    Estimated Free Energy of Binding    =  -5.46 kcal/mol  [=(1)+(2)+(3)-(4)]
USER
USER    (1) Final Intermolecular Energy     =  -7.55 kcal/mol
USER        vdW + Hbond + desolv Energy     =  -7.21 kcal/mol
USER        Electrostatic Energy            =  -0.34 kcal/mol
USER        Moving Ligand-Fixed Receptor    =  -7.55 kcal/mol
USER        Moving Ligand-Moving Receptor   =  +0.00 kcal/mol
USER    (2) Final Total Internal Energy     =  -2.83 kcal/mol
USER    (3) Torsional Free Energy           =  +2.09 kcal/mol
USER    (4) Unbound System's Energy         =  -2.83 kcal/mol
USER
USER
REMARK  Name = Z15571455
REMARK  7 active torsions:
REMARK  status: ('A' for Active; 'I' for Inactive)
REMARK    1  A    between atoms: C_7  and  C_8
REMARK    2  A    between atoms: C_11  and  S_12
REMARK    3  A    between atoms: S_12  and  C_13
REMARK    4  A    between atoms: C_13  and  C_14
REMARK    5  A    between atoms: N_16  and  C_17
REMARK    6  A    between atoms: N_23  and  C_24
REMARK    7  A    between atoms: C_24  and  C_25
REMARK                            x       y       z     vdW  Elec       q    Type
REMARK                         _______ _______ _______ _____ _____    ______ ____
USER                              x       y       z     vdW  Elec       q    Type
USER                           _______ _______ _______ _____ _____    ______ ____
ROOT
ATOM      1  C   UNL     1     165.114 172.133 173.681 -0.08 -0.05    +0.166 A 
ATOM      2  N   UNL     1     164.726 171.211 172.716 -0.11 +0.08    -0.298 N 
ATOM      3  C   UNL     1     164.447 171.955 171.591 +0.04 -0.03    +0.193 A 
ATOM      4  N   UNL     1     164.547 173.233 171.856 -0.14 +0.02    -0.122 NA
ATOM      5  N   UNL     1     164.970 173.342 173.152 -0.11 +0.02    -0.128 NA
ENDROOT
BRANCH   1   8
ATOM      6 BR   UNL     1     164.132 174.152 176.071 -0.50 -0.01    -0.050 Br
ATOM      7  C   UNL     1     165.442 172.769 176.110 -0.17 -0.01    +0.029 A 
ATOM      8  C   UNL     1     165.679 171.894 175.025 -0.10 -0.01    +0.033 A 
ATOM      9  C   UNL     1     166.614 170.863 175.234 -0.23 -0.01    +0.012 A 
ATOM     10  C   UNL     1     167.296 170.718 176.448 -0.26 -0.00    +0.001 A 
ATOM     11  C   UNL     1     167.089 171.624 177.479 -0.29 -0.00    +0.001 A 
ATOM     12  C   UNL     1     166.155 172.641 177.311 -0.27 -0.01    +0.016 A 
ENDBRANCH   1   8
BRANCH   2  13
ATOM     13  C   UNL     1     164.717 169.761 172.785 -0.24 -0.05    +0.161 C 
BRANCH  13  14
ATOM     14  C   UNL     1     163.713 169.135 173.725 -0.36 +0.01    -0.028 A 
ATOM     15  C   UNL     1     162.642 169.934 174.162 -0.32 -0.00    +0.005 A 
ATOM     16  C   UNL     1     161.776 169.490 175.163 -0.38 -0.00    +0.000 A 
ATOM     17  C   UNL     1     161.967 168.239 175.738 -0.34 -0.00    +0.000 A 
ATOM     18  C   UNL     1     163.012 167.426 175.303 -0.39 -0.00    +0.000 A 
ATOM     19  C   UNL     1     163.886 167.871 174.307 -0.45 -0.00    +0.005 A 
ENDBRANCH  13  14
ENDBRANCH   2  13
BRANCH   3  20
ATOM     20  S   UNL     1     164.069 171.288 170.039 -0.26 +0.02    -0.077 S 
BRANCH  20  21
ATOM     21  C   UNL     1     164.315 172.699 168.928 -0.29 -0.05    +0.173 C 
BRANCH  21  22
ATOM     22  C   UNL     1     165.692 173.323 169.118 -0.26 +0.04    +0.228 C 
ATOM     23  N   UNL     1     165.657 174.531 169.795 -0.17 -0.01    -0.285 N 
ATOM     24  H   UNL     1     164.805 174.723 170.324 +0.09 -0.02    +0.155 HD
ATOM     25  O   UNL     1     166.699 172.760 168.696 -0.63 -0.28    -0.275 OA
BRANCH  23  26
ATOM     26  C   UNL     1     166.750 175.373 170.075 -0.23 +0.00    +0.033 A 
ATOM     27  C   UNL     1     167.461 175.132 171.256 -0.14 +0.00    +0.023 A 
ATOM     28  C   UNL     1     168.587 175.893 171.576 -0.14 -0.00    +0.002 A 
ATOM     29  C   UNL     1     168.997 176.919 170.730 -0.10 -0.00    +0.000 A 
ATOM     30  C   UNL     1     168.271 177.196 169.574 -0.19 +0.00    +0.002 A 
ATOM     31  C   UNL     1     167.144 176.429 169.250 -0.23 +0.00    +0.023 A 
ENDBRANCH  23  26
ENDBRANCH  21  22
ENDBRANCH  20  21
ENDBRANCH   3  20
TORSDOF 7
TER
ENDMDL
