MODEL        1
USER    Run = 1
USER
USER    Estimated Free Energy of Binding    =  -5.09 kcal/mol  [=(1)+(2)+(3)-(4)]
USER
USER    (1) Final Intermolecular Energy     =  -6.28 kcal/mol
USER        vdW + Hbond + desolv Energy     =  -6.27 kcal/mol
USER        Electrostatic Energy            =  -0.01 kcal/mol
USER        Moving Ligand-Fixed Receptor    =  -6.28 kcal/mol
USER        Moving Ligand-Moving Receptor   =  +0.00 kcal/mol
USER    (2) Final Total Internal Energy     =  -1.81 kcal/mol
USER    (3) Torsional Free Energy           =  +1.19 kcal/mol
USER    (4) Unbound System's Energy         =  -1.81 kcal/mol
USER
USER
REMARK  Name = Z15506457
REMARK  4 active torsions:
REMARK  status: ('A' for Active; 'I' for Inactive)
REMARK    1  A    between atoms: C_2  and  C_4
REMARK    2  A    between atoms: C_4  and  S_5
REMARK    3  A    between atoms: S_5  and  C_6
REMARK    4  A    between atoms: N_16  and  C_17
REMARK                            x       y       z     vdW  Elec       q    Type
REMARK                         _______ _______ _______ _____ _____    ______ ____
USER                              x       y       z     vdW  Elec       q    Type
USER                           _______ _______ _______ _____ _____    ______ ____
ROOT
ATOM      1  C   UNL     1     152.589 166.014 180.437 -0.25 -0.10    +0.177 C 
ATOM      2  N   UNL     1     152.620 167.395 180.714 -0.15 +0.21    -0.255 N 
ATOM      3  C   UNL     1     153.461 168.194 179.905 -0.12 -0.29    +0.267 C 
ATOM      4  O   UNL     1     153.486 169.421 179.838 -0.33 +0.30    -0.267 OA
ATOM      5  C   UNL     1     154.450 167.510 179.054 -0.35 -0.05    +0.065 A 
ATOM      6  C   UNL     1     154.375 166.136 178.962 -0.33 -0.05    +0.079 A 
ATOM      7  C   UNL     1     155.336 165.455 178.201 -0.24 -0.01    +0.028 A 
ATOM      8  C   UNL     1     156.358 166.154 177.553 -0.43 -0.00    +0.002 A 
ATOM      9  C   UNL     1     156.420 167.542 177.647 -0.49 -0.00    +0.001 A 
ATOM     10  C   UNL     1     155.463 168.224 178.397 -0.34 -0.01    +0.015 A 
ATOM     11  N   UNL     1     153.380 165.413 179.611 -0.20 +0.11    -0.223 NA
ENDROOT
BRANCH   2  12
ATOM     12  C   UNL     1     151.849 168.056 181.772 -0.24 -0.05    +0.053 A 
ATOM     13  C   UNL     1     152.311 168.150 183.094 -0.25 -0.05    +0.046 A 
ATOM     14  C   UNL     1     151.519 168.679 184.123 -0.22 -0.06    +0.043 A 
ATOM     15 CL   UNL     1     152.084 168.605 185.748 -0.46 +0.09    -0.084 Cl
ATOM     16  C   UNL     1     150.283 169.241 183.851 -0.13 -0.03    +0.020 A 
ATOM     17  C   UNL     1     149.845 169.277 182.537 -0.13 -0.00    +0.003 A 
ATOM     18  C   UNL     1     150.607 168.676 181.523 -0.14 -0.02    +0.026 A 
ENDBRANCH   2  12
BRANCH   1  19
ATOM     19  S   UNL     1     151.447 164.887 181.159 -0.49 +0.02    -0.078 S 
BRANCH  19  20
ATOM     20  C   UNL     1     150.101 164.861 179.948 -0.21 -0.01    +0.172 C 
BRANCH  20  24
ATOM     21  N   UNL     1     151.160 165.843 177.960 -0.04 +0.23    -0.329 N 
ATOM     22  H   UNL     1     151.894 165.151 178.039 +0.04 -0.07    +0.145 HD
ATOM     23  H   UNL     1     151.347 166.649 177.374 -0.53 -0.23    +0.145 HD
ATOM     24  C   UNL     1     150.268 166.027 178.983 -0.14 -0.10    +0.221 C 
ATOM     25  O   UNL     1     149.603 167.055 179.050 -0.09 +0.15    -0.275 OA
ENDBRANCH  20  24
ENDBRANCH  19  20
ENDBRANCH   1  19
TORSDOF 4
TER
ENDMDL
