MODEL        1
USER    Run = 1
USER
USER    Estimated Free Energy of Binding    =  -3.24 kcal/mol  [=(1)+(2)+(3)-(4)]
USER
USER    (1) Final Intermolecular Energy     =  -5.63 kcal/mol
USER        vdW + Hbond + desolv Energy     =  -5.56 kcal/mol
USER        Electrostatic Energy            =  -0.07 kcal/mol
USER        Moving Ligand-Fixed Receptor    =  -5.63 kcal/mol
USER        Moving Ligand-Moving Receptor   =  +0.00 kcal/mol
USER    (2) Final Total Internal Energy     =  -2.99 kcal/mol
USER    (3) Torsional Free Energy           =  +2.39 kcal/mol
USER    (4) Unbound System's Energy         =  -2.99 kcal/mol
USER
USER
REMARK  Name = Z15554832
REMARK  13 active torsions:
REMARK  status: ('A' for Active; 'I' for Inactive)
REMARK    1  A    between atoms: C_1  and  S_2
REMARK    2  A    between atoms: S_2  and  C_3
REMARK    3  A    between atoms: C_3  and  C_4
REMARK    4  A    between atoms: C_4  and  C_5
REMARK    5  A    between atoms: N_9  and  C_10
REMARK    6  A    between atoms: C_10  and  C_11
REMARK    7  A    between atoms: N_13  and  C_14
REMARK    8  A    between atoms: C_15  and  C_23
REMARK    9  A    between atoms: C_19  and  C_20
REMARK   10  A    between atoms: C_20  and  C_21
REMARK   11  A    between atoms: C_20  and  C_22
REMARK   12  A    between atoms: C_23  and  C_24
REMARK   13  A    between atoms: C_23  and  C_25
REMARK                            x       y       z     vdW  Elec       q    Type
REMARK                         _______ _______ _______ _____ _____    ______ ____
USER                              x       y       z     vdW  Elec       q    Type
USER                           _______ _______ _______ _____ _____    ______ ____
ROOT
ATOM      1  C   UNL     1     164.586 172.546 175.542 -0.03 -0.04    +0.235 C 
ATOM      2  N   UNL     1     163.411 172.122 174.938 -0.08 +0.02    -0.284 N 
ATOM      3  H   UNL     1     162.627 172.768 174.883 +0.08 +0.02    +0.155 HD
ATOM      4  O   UNL     1     165.624 171.889 175.583 -0.13 +0.10    -0.274 OA
ENDROOT
BRANCH   2   5
ATOM      5  C   UNL     1     163.290 170.966 174.129 -0.11 -0.01    +0.040 A 
ATOM      6  C   UNL     1     162.510 169.861 174.562 -0.31 +0.00    -0.023 A 
ATOM      7  C   UNL     1     162.623 168.648 173.853 -0.31 -0.00    +0.006 A 
ATOM      8  C   UNL     1     163.439 168.533 172.734 -0.38 -0.00    +0.001 A 
ATOM      9  C   UNL     1     164.159 169.633 172.287 -0.30 -0.00    +0.006 A 
ATOM     10  C   UNL     1     164.103 170.866 172.963 -0.20 +0.01    -0.023 A 
BRANCH  10  11
ATOM     11  C   UNL     1     164.887 172.055 172.398 -0.25 -0.00    +0.015 C 
ATOM     12  C   UNL     1     164.513 172.434 170.950 -0.28 -0.00    +0.012 C 
ATOM     13  C   UNL     1     166.392 171.797 172.477 -0.11 -0.00    +0.012 C 
ENDBRANCH  10  11
BRANCH   6  14
ATOM     14  C   UNL     1     161.543 169.907 175.743 -0.43 -0.00    +0.015 C 
ATOM     15  C   UNL     1     161.358 168.555 176.436 -0.47 -0.00    +0.012 C 
ATOM     16  C   UNL     1     160.191 170.485 175.306 -0.52 +0.00    +0.012 C 
ENDBRANCH   6  14
ENDBRANCH   2   5
BRANCH   1  17
ATOM     17  C   UNL     1     164.502 173.944 176.152 -0.12 +0.02    +0.214 C 
BRANCH  17  21
ATOM     18  C   UNL     1     165.333 177.016 174.151 -0.02 -0.02    +0.162 C 
ATOM     19  C   UNL     1     165.674 175.928 175.182 -0.01 -0.00    +0.244 C 
ATOM     20  O   UNL     1     166.637 175.964 175.940 -0.20 -0.02    -0.273 OA
ATOM     21  N   UNL     1     164.681 174.990 175.169 -0.06 -0.02    -0.216 N 
ATOM     22  C   UNL     1     163.743 175.315 174.242 -0.04 +0.00    +0.310 C 
ATOM     23  O   UNL     1     162.680 174.743 174.058 -0.08 -0.03    -0.252 OA
ATOM     24  N   UNL     1     164.156 176.433 173.557 -0.05 +0.12    -0.288 N 
ATOM     25  H   UNL     1     163.488 176.947 172.995 -0.49 -0.22    +0.151 HD
BRANCH  18  26
ATOM     26  C   UNL     1     166.454 177.290 173.162 -0.05 -0.01    +0.042 C 
BRANCH  26  27
ATOM     27  C   UNL     1     166.166 176.815 171.732 -0.10 -0.01    +0.071 C 
BRANCH  27  29
ATOM     28  C   UNL     1     166.374 174.979 169.673 -0.29 +0.01    +0.084 C 
ATOM     29  S   UNL     1     166.966 175.218 171.366 -0.20 +0.00    -0.164 S 
ENDBRANCH  27  29
ENDBRANCH  26  27
ENDBRANCH  18  26
ENDBRANCH  17  21
ENDBRANCH   1  17
TORSDOF 8
TER
ENDMDL
