MODEL        1
USER    Run = 1
USER
USER    Estimated Free Energy of Binding    =  -4.55 kcal/mol  [=(1)+(2)+(3)-(4)]
USER
USER    (1) Final Intermolecular Energy     =  -6.34 kcal/mol
USER        vdW + Hbond + desolv Energy     =  -6.35 kcal/mol
USER        Electrostatic Energy            =  +0.00 kcal/mol
USER        Moving Ligand-Fixed Receptor    =  -6.34 kcal/mol
USER        Moving Ligand-Moving Receptor   =  +0.00 kcal/mol
USER    (2) Final Total Internal Energy     =  -1.69 kcal/mol
USER    (3) Torsional Free Energy           =  +1.79 kcal/mol
USER    (4) Unbound System's Energy         =  -1.69 kcal/mol
USER
USER
REMARK  Name = Z15555268
REMARK  8 active torsions:
REMARK  status: ('A' for Active; 'I' for Inactive)
REMARK    1  A    between atoms: C_1  and  S_2
REMARK    2  A    between atoms: S_2  and  C_3
REMARK    3  A    between atoms: C_3  and  C_4
REMARK    4  A    between atoms: C_4  and  C_5
REMARK    5  A    between atoms: N_9  and  C_10
REMARK    6  A    between atoms: C_10  and  C_11
REMARK    7  A    between atoms: N_13  and  C_14
REMARK    8  A    between atoms: C_20  and  C_21
REMARK                            x       y       z     vdW  Elec       q    Type
REMARK                         _______ _______ _______ _____ _____    ______ ____
USER                              x       y       z     vdW  Elec       q    Type
USER                           _______ _______ _______ _____ _____    ______ ____
ROOT
ATOM      1  C   UNL     1     162.812 167.608 174.928 -0.23 -0.03    +0.214 C 
ENDROOT
BRANCH   1   5
ATOM      2  C   UNL     1     160.248 169.160 177.203 -0.41 -0.03    +0.162 C 
ATOM      3  C   UNL     1     160.956 169.008 175.850 -0.21 -0.01    +0.244 C 
ATOM      4  O   UNL     1     160.764 169.689 174.852 -0.34 -0.01    -0.273 OA
ATOM      5  N   UNL     1     161.913 168.042 175.973 -0.27 +0.02    -0.216 N 
ATOM      6  C   UNL     1     161.874 167.486 177.211 -0.17 -0.03    +0.310 C 
ATOM      7  O   UNL     1     162.626 166.651 177.678 -0.33 +0.04    -0.252 OA
ATOM      8  N   UNL     1     160.825 168.044 177.909 -0.22 +0.08    -0.288 N 
ATOM      9  H   UNL     1     160.762 167.888 178.907 -0.13 -0.09    +0.151 HD
BRANCH   2  10
ATOM     10  C   UNL     1     158.725 169.113 177.116 -0.35 -0.02    +0.042 C 
BRANCH  10  11
ATOM     11  C   UNL     1     158.136 167.697 177.124 -0.44 -0.03    +0.071 C 
BRANCH  11  13
ATOM     12  C   UNL     1     156.126 165.883 177.710 -0.40 -0.04    +0.084 C 
ATOM     13  S   UNL     1     156.446 167.661 177.810 -0.59 +0.10    -0.164 S 
ENDBRANCH  11  13
ENDBRANCH  10  11
ENDBRANCH   2  10
ENDBRANCH   1   5
BRANCH   1  14
ATOM     14  C   UNL     1     163.823 168.670 174.503 -0.24 -0.06    +0.235 C 
ATOM     15  N   UNL     1     163.288 169.830 173.950 -0.15 +0.06    -0.284 N 
ATOM     16  H   UNL     1     162.342 169.750 173.589 +0.10 -0.02    +0.155 HD
ATOM     17  O   UNL     1     165.024 168.392 174.482 -0.38 +0.10    -0.274 OA
BRANCH  15  18
ATOM     18  C   UNL     1     164.135 170.816 173.372 -0.23 -0.01    +0.038 A 
ATOM     19  C   UNL     1     164.246 172.101 173.949 -0.14 +0.00    -0.011 A 
ATOM     20  C   UNL     1     163.474 172.435 175.198 -0.24 -0.00    +0.047 C 
ATOM     21  C   UNL     1     165.015 173.068 173.265 -0.10 -0.01    +0.046 A 
ATOM     22 CL   UNL     1     165.168 174.699 173.826 -0.17 +0.01    -0.083 Cl
ATOM     23  C   UNL     1     165.673 172.759 172.070 -0.17 -0.00    +0.020 A 
ATOM     24  C   UNL     1     165.595 171.479 171.539 -0.26 -0.00    +0.003 A 
ATOM     25  C   UNL     1     164.832 170.513 172.191 -0.29 -0.01    +0.024 A 
ENDBRANCH  15  18
ENDBRANCH   1  14
TORSDOF 6
TER
ENDMDL
