MODEL        1
USER    Run = 1
USER
USER    Estimated Free Energy of Binding    =  -5.28 kcal/mol  [=(1)+(2)+(3)-(4)]
USER
USER    (1) Final Intermolecular Energy     =  -7.36 kcal/mol
USER        vdW + Hbond + desolv Energy     =  -7.32 kcal/mol
USER        Electrostatic Energy            =  -0.05 kcal/mol
USER        Moving Ligand-Fixed Receptor    =  -7.36 kcal/mol
USER        Moving Ligand-Moving Receptor   =  +0.00 kcal/mol
USER    (2) Final Total Internal Energy     =  -1.72 kcal/mol
USER    (3) Torsional Free Energy           =  +2.09 kcal/mol
USER    (4) Unbound System's Energy         =  -1.72 kcal/mol
USER
USER
REMARK  Name = Z15554516
REMARK  9 active torsions:
REMARK  status: ('A' for Active; 'I' for Inactive)
REMARK    1  A    between atoms: C_1  and  S_2
REMARK    2  A    between atoms: S_2  and  C_3
REMARK    3  A    between atoms: C_3  and  C_4
REMARK    4  A    between atoms: C_4  and  C_5
REMARK    5  A    between atoms: N_9  and  C_10
REMARK    6  A    between atoms: C_10  and  C_11
REMARK    7  A    between atoms: N_13  and  C_14
REMARK    8  A    between atoms: C_14  and  C_15
REMARK    9  A    between atoms: C_14  and  C_16
REMARK                            x       y       z     vdW  Elec       q    Type
REMARK                         _______ _______ _______ _____ _____    ______ ____
USER                              x       y       z     vdW  Elec       q    Type
USER                           _______ _______ _______ _____ _____    ______ ____
ROOT
ATOM      1  C   UNL     1     162.960 167.493 175.110 -0.27 -0.04    +0.231 C 
ATOM      2  N   UNL     1     163.376 168.654 174.488 -0.17 +0.06    -0.307 N 
ATOM      3  H   UNL     1     163.543 169.480 175.055 +0.12 -0.04    +0.149 HD
ATOM      4  O   UNL     1     162.996 166.390 174.572 -0.22 +0.06    -0.274 OA
ENDROOT
BRANCH   2   5
ATOM      5  C   UNL     1     163.779 168.675 173.089 -0.37 -0.02    +0.100 C 
ATOM      6  C   UNL     1     162.630 168.218 172.183 -0.30 -0.01    +0.033 C 
BRANCH   5   7
ATOM      7  C   UNL     1     164.290 170.041 172.670 -0.31 +0.01    -0.027 A 
ATOM      8  C   UNL     1     164.143 170.513 171.354 -0.19 -0.00    +0.014 A 
ATOM      9  C   UNL     1     164.730 171.722 170.943 -0.25 +0.00    -0.018 A 
ATOM     10  C   UNL     1     165.464 172.489 171.875 -0.20 +0.00    -0.018 A 
ATOM     11  C   UNL     1     166.083 173.677 171.454 -0.17 +0.00    +0.008 A 
ATOM     12  C   UNL     1     165.981 174.103 170.128 -0.29 +0.00    +0.001 A 
ATOM     13  C   UNL     1     165.249 173.354 169.213 -0.39 -0.00    +0.001 A 
ATOM     14  C   UNL     1     165.568 172.041 173.200 -0.18 -0.00    +0.009 A 
ATOM     15  C   UNL     1     164.624 172.173 169.617 -0.35 -0.00    +0.008 A 
ATOM     16  C   UNL     1     164.987 170.832 173.591 -0.28 -0.00    +0.006 A 
ENDBRANCH   5   7
ENDBRANCH   2   5
BRANCH   1  17
ATOM     17  C   UNL     1     162.458 167.679 176.538 -0.02 -0.02    +0.213 C 
BRANCH  17  21
ATOM     18  C   UNL     1     158.800 168.523 176.629 -0.28 -0.06    +0.162 C 
ATOM     19  C   UNL     1     159.998 167.631 176.977 -0.25 -0.05    +0.244 C 
ATOM     20  O   UNL     1     159.922 166.517 177.474 -0.15 +0.05    -0.273 OA
ATOM     21  N   UNL     1     161.138 168.261 176.557 -0.30 +0.02    -0.216 N 
ATOM     22  C   UNL     1     160.838 169.445 175.963 -0.25 -0.02    +0.310 C 
ATOM     23  O   UNL     1     161.616 170.185 175.382 -0.32 +0.01    -0.252 OA
ATOM     24  N   UNL     1     159.487 169.667 176.079 -0.21 +0.04    -0.288 N 
ATOM     25  H   UNL     1     159.048 170.394 175.529 +0.10 -0.02    +0.151 HD
BRANCH  18  26
ATOM     26  C   UNL     1     157.936 168.859 177.841 -0.41 -0.02    +0.042 C 
BRANCH  26  27
ATOM     27  C   UNL     1     156.549 168.208 177.825 -0.49 -0.04    +0.071 C 
BRANCH  27  29
ATOM     28  C   UNL     1     156.746 165.825 176.435 -0.42 -0.05    +0.084 C 
ATOM     29  S   UNL     1     156.630 166.415 178.142 -0.48 +0.07    -0.164 S 
ENDBRANCH  27  29
ENDBRANCH  26  27
ENDBRANCH  18  26
ENDBRANCH  17  21
ENDBRANCH   1  17
TORSDOF 7
TER
ENDMDL
