MODEL        1
USER    Run = 1
USER
USER    Estimated Free Energy of Binding    =  -5.80 kcal/mol  [=(1)+(2)+(3)-(4)]
USER
USER    (1) Final Intermolecular Energy     =  -7.29 kcal/mol
USER        vdW + Hbond + desolv Energy     =  -7.37 kcal/mol
USER        Electrostatic Energy            =  +0.08 kcal/mol
USER        Moving Ligand-Fixed Receptor    =  -7.29 kcal/mol
USER        Moving Ligand-Moving Receptor   =  +0.00 kcal/mol
USER    (2) Final Total Internal Energy     =  -1.57 kcal/mol
USER    (3) Torsional Free Energy           =  +1.49 kcal/mol
USER    (4) Unbound System's Energy         =  -1.57 kcal/mol
USER
USER
REMARK  Name = Z15587433
REMARK  7 active torsions:
REMARK  status: ('A' for Active; 'I' for Inactive)
REMARK    1  A    between atoms: C_1  and  C_2
REMARK    2  A    between atoms: C_5  and  C_6
REMARK    3  A    between atoms: C_7  and  C_8
REMARK    4  A    between atoms: C_8  and  S_9
REMARK    5  A    between atoms: S_9  and  C_10
REMARK    6  A    between atoms: C_13  and  C_14
REMARK    7  A    between atoms: N_21  and  C_22
REMARK                            x       y       z     vdW  Elec       q    Type
REMARK                         _______ _______ _______ _____ _____    ______ ____
USER                              x       y       z     vdW  Elec       q    Type
USER                           _______ _______ _______ _____ _____    ______ ____
ROOT
ATOM      1  C   UNL     1     164.145 169.199 173.388 -0.23 -0.05    +0.192 A 
ATOM      2  N   UNL     1     164.540 170.503 173.173 -0.14 +0.09    -0.299 N 
ATOM      3  C   UNL     1     164.440 170.674 171.784 -0.15 -0.04    +0.167 A 
ATOM      4  N   UNL     1     163.768 169.639 171.305 -0.25 +0.04    -0.128 NA
ATOM      5  N   UNL     1     163.606 168.713 172.299 -0.31 +0.03    -0.122 NA
ENDROOT
BRANCH   3   6
ATOM      6  C   UNL     1     164.870 171.817 170.949 -0.24 -0.00    +0.038 A 
ATOM      7  C   UNL     1     164.434 172.082 169.639 -0.31 -0.01    +0.052 A 
ATOM      8 CL   UNL     1     163.078 171.289 168.910 -0.30 +0.03    -0.083 Cl
ATOM      9  C   UNL     1     165.001 173.120 168.887 -0.33 -0.00    +0.021 A 
ATOM     10  C   UNL     1     165.913 173.999 169.469 -0.34 +0.00    +0.002 A 
ATOM     11  C   UNL     1     166.250 173.844 170.812 -0.21 +0.00    +0.001 A 
ATOM     12  C   UNL     1     165.749 172.755 171.531 -0.19 +0.00    +0.013 A 
ENDBRANCH   3   6
BRANCH   2  13
ATOM     13  C   UNL     1     165.000 171.507 174.110 -0.22 -0.03    +0.091 C 
ATOM     14  C   UNL     1     166.047 171.189 175.193 -0.20 -0.01    +0.025 C 
ATOM     15  C   UNL     1     165.991 172.371 176.165 -0.22 -0.00    +0.002 C 
ATOM     16  C   UNL     1     164.696 173.111 175.846 -0.25 -0.00    +0.002 C 
ATOM     17  C   UNL     1     163.901 172.146 174.975 -0.21 -0.00    +0.025 C 
ENDBRANCH   2  13
BRANCH   1  18
ATOM     18  S   UNL     1     164.387 168.295 174.843 -0.46 +0.02    -0.081 S 
BRANCH  18  19
ATOM     19  C   UNL     1     162.864 167.316 174.972 -0.28 -0.02    +0.117 C 
BRANCH  19  22
ATOM     20  C   UNL     1     161.891 166.254 177.933 -0.38 -0.01    +0.069 C 
ATOM     21  C   UNL     1     161.511 167.499 177.223 -0.37 -0.01    +0.085 A 
ATOM     22  C   UNL     1     161.931 167.963 175.943 -0.35 -0.00    +0.027 A 
ATOM     23  C   UNL     1     161.278 169.176 175.819 -0.28 -0.01    +0.138 A 
ATOM     24  C   UNL     1     161.242 170.221 174.780 -0.41 -0.00    +0.089 C 
ATOM     25  O   UNL     1     160.530 169.405 176.926 -0.29 +0.05    -0.359 OA
ATOM     26  N   UNL     1     160.669 168.359 177.806 -0.45 +0.02    -0.083 NA
ENDBRANCH  19  22
ENDBRANCH  18  19
ENDBRANCH   1  18
TORSDOF 5
TER
ENDMDL
