MODEL        1
USER    Run = 1
USER
USER    Estimated Free Energy of Binding    =  -5.41 kcal/mol  [=(1)+(2)+(3)-(4)]
USER
USER    (1) Final Intermolecular Energy     =  -7.20 kcal/mol
USER        vdW + Hbond + desolv Energy     =  -7.04 kcal/mol
USER        Electrostatic Energy            =  -0.16 kcal/mol
USER        Moving Ligand-Fixed Receptor    =  -7.20 kcal/mol
USER        Moving Ligand-Moving Receptor   =  +0.00 kcal/mol
USER    (2) Final Total Internal Energy     =  -2.09 kcal/mol
USER    (3) Torsional Free Energy           =  +1.79 kcal/mol
USER    (4) Unbound System's Energy         =  -2.09 kcal/mol
USER
USER
REMARK  Name = Z15589096
REMARK  7 active torsions:
REMARK  status: ('A' for Active; 'I' for Inactive)
REMARK    1  A    between atoms: C_1  and  C_2
REMARK    2  A    between atoms: C_8  and  C_10
REMARK    3  A    between atoms: C_10  and  S_11
REMARK    4  A    between atoms: S_11  and  C_12
REMARK    5  A    between atoms: C_15  and  C_16
REMARK    6  A    between atoms: N_23  and  C_24
REMARK    7  A    between atoms: C_24  and  C_25
REMARK                            x       y       z     vdW  Elec       q    Type
REMARK                         _______ _______ _______ _____ _____    ______ ____
USER                              x       y       z     vdW  Elec       q    Type
USER                           _______ _______ _______ _____ _____    ______ ____
ROOT
ATOM      1  C   UNL     1     164.285 170.484 172.048 -0.13 -0.05    +0.193 A 
ATOM      2  N   UNL     1     163.988 170.470 173.392 -0.11 +0.08    -0.298 N 
ATOM      3  C   UNL     1     162.994 169.497 173.543 -0.21 -0.03    +0.167 A 
ATOM      4  N   UNL     1     162.626 169.120 172.329 -0.28 +0.03    -0.128 NA
ATOM      5  N   UNL     1     163.428 169.732 171.401 -0.23 +0.04    -0.122 NA
ENDROOT
BRANCH   3   6
ATOM      6  C   UNL     1     162.474 168.911 174.803 -0.31 -0.00    +0.038 A 
ATOM      7  C   UNL     1     161.497 169.553 175.588 -0.37 -0.00    +0.052 A 
ATOM      8 CL   UNL     1     160.919 171.150 175.253 -0.51 -0.01    -0.083 Cl
ATOM      9  C   UNL     1     160.957 168.927 176.725 -0.44 -0.00    +0.021 A 
ATOM     10  C   UNL     1     161.401 167.667 177.124 -0.44 -0.00    +0.002 A 
ATOM     11  C   UNL     1     162.379 167.025 176.378 -0.36 -0.00    +0.001 A 
ATOM     12  C   UNL     1     162.886 167.626 175.220 -0.37 -0.00    +0.013 A 
ENDBRANCH   3   6
BRANCH   1  13
ATOM     13  S   UNL     1     165.640 171.289 171.329 -0.34 +0.00    -0.077 S 
BRANCH  13  14
ATOM     14  C   UNL     1     164.988 172.986 171.033 -0.18 -0.01    +0.173 C 
BRANCH  14  18
ATOM     15  C   UNL     1     167.189 175.442 172.738 +0.18 -0.01    +0.028 C 
ATOM     16  C   UNL     1     165.977 175.694 171.830 -0.13 -0.01    +0.073 C 
ATOM     17  N   UNL     1     166.199 175.141 170.480 -0.11 -0.01    -0.298 N 
ATOM     18  C   UNL     1     165.918 173.809 170.117 -0.19 +0.05    +0.226 C 
ATOM     19  O   UNL     1     166.380 173.333 169.072 -0.90 -0.18    -0.275 OA
ATOM     20  C   UNL     1     167.125 175.897 169.621 -0.21 +0.01    +0.108 C 
ATOM     21  C   UNL     1     166.800 177.388 169.563 -0.18 -0.00    +0.019 C 
ATOM     22  C   UNL     1     166.634 178.000 170.947 -0.18 -0.00    +0.003 C 
ATOM     23  C   UNL     1     165.631 177.193 171.767 -0.02 -0.01    +0.022 C 
ENDBRANCH  14  18
ENDBRANCH  13  14
ENDBRANCH   1  13
BRANCH   2  24
ATOM     24  C   UNL     1     164.662 171.128 174.501 -0.12 -0.05    +0.161 C 
BRANCH  24  25
ATOM     25  C   UNL     1     164.199 172.488 174.948 -0.17 +0.00    -0.028 A 
ATOM     26  C   UNL     1     164.143 173.515 173.988 -0.11 -0.00    +0.005 A 
ATOM     27  C   UNL     1     163.934 174.840 174.366 -0.15 +0.00    +0.000 A 
ATOM     28  C   UNL     1     163.771 175.155 175.711 -0.08 +0.00    +0.000 A 
ATOM     29  C   UNL     1     163.798 174.146 176.673 -0.24 +0.00    +0.000 A 
ATOM     30  C   UNL     1     164.017 172.818 176.298 -0.14 +0.00    +0.005 A 
ENDBRANCH  24  25
ENDBRANCH   2  24
TORSDOF 6
TER
ENDMDL
