MODEL        1
USER    Run = 1
USER
USER    Estimated Free Energy of Binding    =  -4.64 kcal/mol  [=(1)+(2)+(3)-(4)]
USER
USER    (1) Final Intermolecular Energy     =  -6.42 kcal/mol
USER        vdW + Hbond + desolv Energy     =  -6.32 kcal/mol
USER        Electrostatic Energy            =  -0.10 kcal/mol
USER        Moving Ligand-Fixed Receptor    =  -6.42 kcal/mol
USER        Moving Ligand-Moving Receptor   =  +0.00 kcal/mol
USER    (2) Final Total Internal Energy     =  -2.39 kcal/mol
USER    (3) Torsional Free Energy           =  +1.79 kcal/mol
USER    (4) Unbound System's Energy         =  -2.39 kcal/mol
USER
USER
REMARK  Name = Z15505890
REMARK  7 active torsions:
REMARK  status: ('A' for Active; 'I' for Inactive)
REMARK    1  A    between atoms: C_1  and  C_2
REMARK    2  A    between atoms: C_2  and  C_3
REMARK    3  A    between atoms: C_3  and  N_4
REMARK    4  A    between atoms: C_5  and  C_7
REMARK    5  A    between atoms: C_7  and  S_8
REMARK    6  A    between atoms: S_8  and  C_9
REMARK    7  A    between atoms: N_19  and  C_20
REMARK                            x       y       z     vdW  Elec       q    Type
REMARK                         _______ _______ _______ _____ _____    ______ ____
USER                              x       y       z     vdW  Elec       q    Type
USER                           _______ _______ _______ _____ _____    ______ ____
ROOT
ATOM      1  C   UNL     1     165.094 171.773 173.517 -0.15 -0.05    +0.177 C 
ATOM      2  N   UNL     1     164.352 170.698 173.019 -0.15 +0.07    -0.255 N 
ATOM      3  C   UNL     1     164.185 170.547 171.631 -0.09 -0.07    +0.267 C 
ATOM      4  O   UNL     1     163.598 169.617 171.078 -0.25 +0.09    -0.267 OA
ATOM      5  C   UNL     1     164.705 171.630 170.777 -0.22 -0.01    +0.065 A 
ATOM      6  C   UNL     1     165.408 172.657 171.394 -0.17 -0.00    +0.079 A 
ATOM      7  C   UNL     1     165.866 173.721 170.611 -0.23 +0.00    +0.028 A 
ATOM      8  C   UNL     1     165.607 173.765 169.237 -0.37 +0.00    +0.002 A 
ATOM      9  C   UNL     1     164.894 172.734 168.630 -0.29 -0.00    +0.001 A 
ATOM     10  C   UNL     1     164.445 171.659 169.398 -0.22 -0.00    +0.015 A 
ATOM     11  N   UNL     1     165.625 172.689 172.772 -0.07 +0.05    -0.223 NA
ENDROOT
BRANCH   2  12
ATOM     12  C   UNL     1     163.684 169.745 173.854 -0.29 -0.01    +0.053 A 
ATOM     13  C   UNL     1     162.468 170.057 174.476 -0.30 -0.01    +0.046 A 
ATOM     14  C   UNL     1     161.849 169.131 175.316 -0.31 -0.00    +0.043 A 
ATOM     15 CL   UNL     1     160.380 169.552 176.106 -0.66 +0.01    -0.084 Cl
ATOM     16  C   UNL     1     162.413 167.877 175.529 -0.34 -0.00    +0.020 A 
ATOM     17  C   UNL     1     163.603 167.540 174.885 -0.40 -0.00    +0.003 A 
ATOM     18  C   UNL     1     164.231 168.466 174.049 -0.41 -0.01    +0.026 A 
ENDBRANCH   2  12
BRANCH   1  19
ATOM     19  S   UNL     1     165.347 172.010 175.243 -0.23 +0.03    -0.078 S 
BRANCH  19  20
ATOM     20  C   UNL     1     163.757 172.675 175.796 -0.12 +0.00    +0.173 C 
BRANCH  20  23
ATOM     21  N   UNL     1     163.709 174.458 174.115 -0.06 -0.00    -0.315 N 
ATOM     22  H   UNL     1     163.904 173.712 173.460 +0.07 -0.02    +0.149 HD
ATOM     23  C   UNL     1     163.713 174.165 175.467 -0.08 +0.07    +0.223 C 
ATOM     24  O   UNL     1     163.666 175.027 176.340 -0.69 -0.20    -0.275 OA
BRANCH  21  25
ATOM     25  C   UNL     1     163.753 175.823 173.613 -0.11 -0.04    +0.104 C 
BRANCH  25  27
ATOM     26  C   UNL     1     166.279 176.100 173.621 -0.07 -0.00    +0.005 C 
ATOM     27  C   UNL     1     165.005 176.111 172.788 -0.12 -0.00    +0.015 C 
ENDBRANCH  25  27
ENDBRANCH  21  25
ENDBRANCH  20  23
ENDBRANCH  19  20
ENDBRANCH   1  19
TORSDOF 6
TER
ENDMDL
