MODEL        1
USER    Run = 1
USER
USER    Estimated Free Energy of Binding    =  -5.74 kcal/mol  [=(1)+(2)+(3)-(4)]
USER
USER    (1) Final Intermolecular Energy     =  -7.53 kcal/mol
USER        vdW + Hbond + desolv Energy     =  -7.54 kcal/mol
USER        Electrostatic Energy            =  +0.02 kcal/mol
USER        Moving Ligand-Fixed Receptor    =  -7.53 kcal/mol
USER        Moving Ligand-Moving Receptor   =  +0.00 kcal/mol
USER    (2) Final Total Internal Energy     =  -1.46 kcal/mol
USER    (3) Torsional Free Energy           =  +1.79 kcal/mol
USER    (4) Unbound System's Energy         =  -1.46 kcal/mol
USER
USER
REMARK  Name = Z15570735
REMARK  6 active torsions:
REMARK  status: ('A' for Active; 'I' for Inactive)
REMARK    1  A    between atoms: C_7  and  C_8
REMARK    2  A    between atoms: C_11  and  S_12
REMARK    3  A    between atoms: S_12  and  C_13
REMARK    4  A    between atoms: C_13  and  C_14
REMARK    5  A    between atoms: N_19  and  C_20
REMARK    6  A    between atoms: C_20  and  C_21
REMARK                            x       y       z     vdW  Elec       q    Type
REMARK                         _______ _______ _______ _____ _____    ______ ____
USER                              x       y       z     vdW  Elec       q    Type
USER                           _______ _______ _______ _____ _____    ______ ____
ROOT
ATOM      1  C   UNL     1     153.323 166.102 179.897 -0.23 -0.10    +0.166 A 
ATOM      2  N   UNL     1     153.684 165.444 178.726 -0.18 +0.15    -0.298 N 
ATOM      3  C   UNL     1     155.035 165.668 178.578 -0.16 -0.09    +0.192 A 
ATOM      4  N   UNL     1     155.458 166.478 179.513 -0.34 +0.07    -0.122 NA
ATOM      5  N   UNL     1     154.403 166.735 180.337 -0.34 +0.10    -0.128 NA
ENDROOT
BRANCH   1   8
ATOM      6 BR   UNL     1     152.133 169.034 180.778 -0.59 +0.05    -0.050 Br
ATOM      7  C   UNL     1     151.480 167.287 181.164 -0.21 -0.02    +0.029 A 
ATOM      8  C   UNL     1     152.036 166.104 180.624 -0.27 -0.02    +0.033 A 
ATOM      9  C   UNL     1     151.386 164.897 180.940 -0.36 -0.00    +0.012 A 
ATOM     10  C   UNL     1     150.250 164.858 181.757 -0.36 -0.00    +0.001 A 
ATOM     11  C   UNL     1     149.754 166.027 182.318 -0.28 -0.00    +0.001 A 
ATOM     12  C   UNL     1     150.364 167.239 182.017 -0.23 -0.01    +0.016 A 
ENDBRANCH   1   8
BRANCH   2  13
ATOM     13  C   UNL     1     152.869 164.614 177.857 -0.04 -0.07    +0.161 C 
BRANCH  13  14
ATOM     14  C   UNL     1     152.946 163.122 178.090 -0.25 +0.01    -0.028 A 
ATOM     15  C   UNL     1     154.219 162.527 178.138 -0.21 -0.00    +0.005 A 
ATOM     16  C   UNL     1     154.359 161.139 178.204 -0.34 -0.00    +0.000 A 
ATOM     17  C   UNL     1     153.231 160.328 178.219 -0.26 -0.00    +0.000 A 
ATOM     18  C   UNL     1     151.961 160.902 178.180 -0.17 -0.00    +0.000 A 
ATOM     19  C   UNL     1     151.817 162.290 178.107 -0.20 -0.00    +0.005 A 
ENDBRANCH  13  14
ENDBRANCH   2  13
BRANCH   3  20
ATOM     20  S   UNL     1     156.033 164.913 177.383 -0.37 +0.04    -0.083 S 
BRANCH  20  21
ATOM     21  C   UNL     1     157.699 165.503 177.822 -0.32 -0.04    +0.109 C 
BRANCH  21  22
ATOM     22  C   UNL     1     158.221 166.713 177.044 -0.33 -0.05    +0.129 C 
ATOM     23  O   UNL     1     159.651 166.818 177.248 -0.11 +0.08    -0.376 OA
ATOM     24  C   UNL     1     160.002 168.207 177.336 -0.40 -0.04    +0.160 C 
ATOM     25  C   UNL     1     158.754 169.001 177.018 -0.47 -0.01    +0.030 C 
ATOM     26  C   UNL     1     157.660 168.064 177.466 -0.51 -0.02    +0.035 C 
ENDBRANCH  21  22
ENDBRANCH  20  21
ENDBRANCH   3  20
TORSDOF 6
TER
ENDMDL
