MODEL        1
USER    Run = 1
USER
USER    Estimated Free Energy of Binding    =  -4.60 kcal/mol  [=(1)+(2)+(3)-(4)]
USER
USER    (1) Final Intermolecular Energy     =  -6.38 kcal/mol
USER        vdW + Hbond + desolv Energy     =  -6.35 kcal/mol
USER        Electrostatic Energy            =  -0.03 kcal/mol
USER        Moving Ligand-Fixed Receptor    =  -6.38 kcal/mol
USER        Moving Ligand-Moving Receptor   =  +0.00 kcal/mol
USER    (2) Final Total Internal Energy     =  -1.85 kcal/mol
USER    (3) Torsional Free Energy           =  +1.79 kcal/mol
USER    (4) Unbound System's Energy         =  -1.85 kcal/mol
USER
USER
REMARK  Name = Z15644555
REMARK  6 active torsions:
REMARK  status: ('A' for Active; 'I' for Inactive)
REMARK    1  A    between atoms: C_5  and  C_6
REMARK    2  A    between atoms: C_9  and  S_10
REMARK    3  A    between atoms: S_10  and  C_11
REMARK    4  A    between atoms: C_11  and  C_12
REMARK    5  A    between atoms: N_14  and  C_15
REMARK    6  A    between atoms: N_18  and  C_19
REMARK                            x       y       z     vdW  Elec       q    Type
REMARK                         _______ _______ _______ _____ _____    ______ ____
USER                              x       y       z     vdW  Elec       q    Type
USER                           _______ _______ _______ _____ _____    ______ ____
ROOT
ATOM      1  C   UNL     1     161.825 170.732 175.907 -0.10 -0.00    +0.167 A 
ATOM      2  N   UNL     1     162.768 170.946 174.884 -0.09 +0.03    -0.299 N 
ATOM      3  C   UNL     1     163.412 172.099 175.272 -0.03 -0.01    +0.193 A 
ATOM      4  N   UNL     1     162.796 172.644 176.291 -0.28 -0.02    -0.122 NA
ATOM      5  N   UNL     1     161.808 171.800 176.684 -0.25 -0.02    -0.128 NA
ENDROOT
BRANCH   1  11
ATOM      6 CL   UNL     1     158.416 166.068 177.552 -0.19 +0.03    -0.084 Cl
ATOM      7  C   UNL     1     159.392 167.365 176.983 -0.28 -0.01    +0.042 A 
ATOM      8  C   UNL     1     158.794 168.488 176.424 -0.14 -0.01    +0.040 A 
ATOM      9  C   UNL     1     159.590 169.563 176.002 -0.33 -0.01    +0.053 A 
ATOM     10 CL   UNL     1     158.763 170.868 175.217 +0.11 +0.01    -0.083 Cl
ATOM     11  C   UNL     1     160.991 169.545 176.175 -0.41 -0.00    +0.038 A 
ATOM     12  C   UNL     1     161.568 168.382 176.717 -0.32 -0.00    +0.014 A 
ATOM     13  C   UNL     1     160.777 167.293 177.100 -0.34 -0.00    +0.021 A 
ENDBRANCH   1  11
BRANCH   2  14
ATOM     14  C   UNL     1     162.902 170.101 173.691 -0.22 -0.02    +0.091 C 
ATOM     15  C   UNL     1     162.447 168.617 173.704 -0.21 -0.00    +0.025 C 
ATOM     16  C   UNL     1     163.393 167.627 174.402 -0.49 -0.00    +0.002 C 
ATOM     17  C   UNL     1     164.881 167.861 174.136 -0.44 -0.00    +0.000 C 
ATOM     18  C   UNL     1     165.247 169.335 174.174 -0.37 -0.00    +0.002 C 
ATOM     19  C   UNL     1     164.363 170.086 173.186 -0.37 -0.01    +0.025 C 
ENDBRANCH   2  14
BRANCH   3  20
ATOM     20  S   UNL     1     164.908 172.739 174.687 -0.26 +0.02    -0.077 S 
BRANCH  20  21
ATOM     21  C   UNL     1     164.285 174.293 173.965 -0.09 -0.02    +0.173 C 
BRANCH  21  22
ATOM     22  C   UNL     1     164.562 174.370 172.469 -0.08 -0.05    +0.224 C 
ATOM     23  N   UNL     1     164.509 173.154 171.800 -0.02 +0.05    -0.312 N 
ATOM     24  H   UNL     1     164.233 172.325 172.305 +0.09 -0.03    +0.149 HD
ATOM     25  O   UNL     1     164.831 175.430 171.879 -0.13 +0.07    -0.275 OA
BRANCH  23  26
ATOM     26  C   UNL     1     164.725 173.082 170.392 -0.31 -0.01    +0.073 C 
ATOM     27  C   UNL     1     163.604 173.399 169.447 -0.40 -0.01    +0.024 C 
ATOM     28  C   UNL     1     164.143 171.997 169.535 -0.41 -0.01    +0.024 C 
ENDBRANCH  23  26
ENDBRANCH  21  22
ENDBRANCH  20  21
ENDBRANCH   3  20
TORSDOF 6
TER
ENDMDL
