MODEL        1
USER    Run = 1
USER
USER    Estimated Free Energy of Binding    =  -4.06 kcal/mol  [=(1)+(2)+(3)-(4)]
USER
USER    (1) Final Intermolecular Energy     =  -6.15 kcal/mol
USER        vdW + Hbond + desolv Energy     =  -5.48 kcal/mol
USER        Electrostatic Energy            =  -0.66 kcal/mol
USER        Moving Ligand-Fixed Receptor    =  -6.15 kcal/mol
USER        Moving Ligand-Moving Receptor   =  +0.00 kcal/mol
USER    (2) Final Total Internal Energy     =  -1.27 kcal/mol
USER    (3) Torsional Free Energy           =  +2.09 kcal/mol
USER    (4) Unbound System's Energy         =  -1.27 kcal/mol
USER
USER
REMARK  Name = Z15624779
REMARK  10 active torsions:
REMARK  status: ('A' for Active; 'I' for Inactive)
REMARK    1  A    between atoms: C_1  and  O_2
REMARK    2  A    between atoms: O_2  and  C_3
REMARK    3  A    between atoms: C_5  and  C_13
REMARK    4  A    between atoms: C_8  and  O_9
REMARK    5  A    between atoms: O_9  and  C_10
REMARK    6  A    between atoms: C_10  and  C_11
REMARK    7  A    between atoms: C_10  and  C_12
REMARK    8  A    between atoms: C_13  and  O_15
REMARK    9  A    between atoms: O_15  and  C_16
REMARK   10  A    between atoms: C_16  and  C_17
REMARK                            x       y       z     vdW  Elec       q    Type
REMARK                         _______ _______ _______ _____ _____    ______ ____
USER                              x       y       z     vdW  Elec       q    Type
USER                           _______ _______ _______ _____ _____    ______ ____
ROOT
ATOM      1  C   UNL     1     165.610 170.852 174.509 -0.06 -0.17    +0.340 C 
ATOM      2  O   UNL     1     166.379 169.991 174.907 -0.32 +0.19    -0.245 OA
ENDROOT
BRANCH   1   7
ATOM      3  C   UNL     1     164.038 174.149 175.644 -0.08 +0.04    +0.162 A 
ATOM      4  C   UNL     1     164.720 174.369 176.852 -0.11 +0.03    +0.162 A 
ATOM      5  C   UNL     1     165.732 173.471 177.223 -0.18 -0.01    +0.050 A 
ATOM      6  C   UNL     1     166.042 172.356 176.437 -0.16 -0.01    +0.019 A 
ATOM      7  C   UNL     1     165.298 172.083 175.288 -0.07 -0.02    +0.063 A 
ATOM      8  C   UNL     1     164.291 172.976 174.906 -0.14 -0.01    +0.064 A 
BRANCH   3  10
ATOM      9  C   UNL     1     163.436 175.743 174.008 -0.03 -0.04    +0.277 C 
ATOM     10  O   UNL     1     163.104 175.055 175.215 -0.21 -0.49    -0.491 OA
ENDBRANCH   3  10
BRANCH   4  11
ATOM     11  O   UNL     1     164.501 175.334 177.800 -0.32 -0.36    -0.486 OA
BRANCH  11  12
ATOM     12  C   UNL     1     163.171 175.638 178.230 -0.14 +0.08    +0.167 C 
ATOM     13  C   UNL     1     162.952 177.132 177.965 -0.07 +0.03    +0.051 C 
ATOM     14  C   UNL     1     163.012 175.382 179.729 -0.22 +0.00    +0.051 C 
ENDBRANCH  11  12
ENDBRANCH   4  11
ENDBRANCH   1   7
BRANCH   1  15
ATOM     15  O   UNL     1     164.938 170.836 173.335 -0.07 +0.16    -0.455 OA
BRANCH  15  16
ATOM     16  C   UNL     1     164.233 169.625 173.014 -0.19 -0.08    +0.288 C 
BRANCH  16  17
ATOM     17  C   UNL     1     163.130 169.395 174.025 -0.35 -0.02    +0.087 C 
ATOM     18  N   UNL     1     163.262 168.280 174.833 -0.25 +0.04    -0.224 NA
ATOM     19  C   UNL     1     162.325 168.099 175.698 -0.18 -0.02    +0.180 A 
ATOM     20  N   UNL     1     161.228 168.906 175.896 -0.23 +0.02    -0.262 N 
ATOM     21  C   UNL     1     160.376 168.484 176.895 -0.40 -0.02    +0.104 A 
ATOM     22  C   UNL     1     160.765 167.356 177.498 -0.35 -0.01    +0.067 A 
ATOM     23  C   UNL     1     161.051 170.037 175.139 -0.30 -0.00    +0.259 C 
ATOM     24  O   UNL     1     160.124 170.832 175.248 -0.41 -0.01    -0.267 OA
ATOM     25  S   UNL     1     162.260 166.757 176.829 -0.51 +0.01    -0.058 S 
ATOM     26  C   UNL     1     162.107 170.267 174.130 -0.14 -0.01    +0.097 C 
ENDBRANCH  16  17
ENDBRANCH  15  16
ENDBRANCH   1  15
TORSDOF 7
TER
ENDMDL
