MODEL        1
USER    Run = 1
USER
USER    Estimated Free Energy of Binding    =  -4.85 kcal/mol  [=(1)+(2)+(3)-(4)]
USER
USER    (1) Final Intermolecular Energy     =  -6.34 kcal/mol
USER        vdW + Hbond + desolv Energy     =  -6.27 kcal/mol
USER        Electrostatic Energy            =  -0.07 kcal/mol
USER        Moving Ligand-Fixed Receptor    =  -6.34 kcal/mol
USER        Moving Ligand-Moving Receptor   =  +0.00 kcal/mol
USER    (2) Final Total Internal Energy     =  -0.73 kcal/mol
USER    (3) Torsional Free Energy           =  +1.49 kcal/mol
USER    (4) Unbound System's Energy         =  -0.73 kcal/mol
USER
USER
REMARK  Name = Z15671292
REMARK  6 active torsions:
REMARK  status: ('A' for Active; 'I' for Inactive)
REMARK    1  A    between atoms: C_1  and  C_2
REMARK    2  A    between atoms: C_2  and  C_19
REMARK    3  A    between atoms: N_6  and  C_7
REMARK    4  A    between atoms: C_7  and  C_8
REMARK    5  A    between atoms: C_8  and  O_9
REMARK    6  A    between atoms: O_9  and  C_10
REMARK                            x       y       z     vdW  Elec       q    Type
REMARK                         _______ _______ _______ _____ _____    ______ ____
USER                              x       y       z     vdW  Elec       q    Type
USER                           _______ _______ _______ _____ _____    ______ ____
ROOT
ATOM      1  C   UNL     1     162.817 168.563 172.334 -0.41 -0.01    +0.042 C 
ATOM      2  C   UNL     1     163.094 169.114 173.727 -0.35 -0.02    +0.113 C 
ATOM      3  C   UNL     1     162.794 168.041 174.800 -0.22 -0.04    +0.247 C 
ATOM      4  O   UNL     1     163.355 166.956 174.893 -0.30 +0.06    -0.273 OA
ATOM      5  N   UNL     1     161.854 168.535 175.663 -0.24 +0.02    -0.221 N 
ATOM      6  C   UNL     1     161.511 169.801 175.305 -0.24 -0.01    +0.309 C 
ATOM      7  O   UNL     1     160.812 170.584 175.926 -0.36 -0.00    -0.252 OA
ATOM      8  N   UNL     1     162.117 170.103 174.107 -0.16 +0.03    -0.285 N 
ATOM      9  H   UNL     1     162.076 171.045 173.743 +0.13 -0.01    +0.151 HD
ENDROOT
BRANCH   2  10
ATOM     10  C   UNL     1     164.510 169.634 173.869 -0.40 -0.01    +0.021 C 
ATOM     11  C   UNL     1     164.836 171.090 174.142 -0.30 -0.00    +0.006 C 
ATOM     12  C   UNL     1     165.170 170.487 172.807 -0.35 -0.00    +0.006 C 
ENDBRANCH   2  10
BRANCH   5  13
ATOM     13  C   UNL     1     161.449 167.889 176.901 -0.37 -0.02    +0.159 C 
BRANCH  13  14
ATOM     14  C   UNL     1     160.006 168.234 177.272 -0.33 -0.06    +0.248 C 
BRANCH  14  15
ATOM     15  O   UNL     1     159.100 167.422 176.523 -0.08 +0.11    -0.487 OA
BRANCH  15  16
ATOM     16  C   UNL     1     157.878 167.178 177.106 -0.29 -0.07    +0.156 A 
ATOM     17  C   UNL     1     157.058 168.104 177.760 -0.33 -0.09    +0.165 A 
ATOM     18  F   UNL     1     157.414 169.391 177.894 -0.11 +0.11    -0.202 F 
ATOM     19  C   UNL     1     155.834 167.725 178.308 -0.44 -0.03    +0.042 A 
ATOM     20  C   UNL     1     155.404 166.403 178.209 -0.42 -0.00    +0.003 A 
ATOM     21  C   UNL     1     156.207 165.467 177.562 -0.36 -0.00    +0.004 A 
ATOM     22  C   UNL     1     157.438 165.852 177.016 -0.37 -0.02    +0.048 A 
ENDBRANCH  15  16
ENDBRANCH  14  15
ENDBRANCH  13  14
ENDBRANCH   5  13
TORSDOF 5
TER
ENDMDL
