MODEL        1
USER    Run = 1
USER
USER    Estimated Free Energy of Binding    =  -4.44 kcal/mol  [=(1)+(2)+(3)-(4)]
USER
USER    (1) Final Intermolecular Energy     =  -5.63 kcal/mol
USER        vdW + Hbond + desolv Energy     =  -5.58 kcal/mol
USER        Electrostatic Energy            =  -0.05 kcal/mol
USER        Moving Ligand-Fixed Receptor    =  -5.63 kcal/mol
USER        Moving Ligand-Moving Receptor   =  +0.00 kcal/mol
USER    (2) Final Total Internal Energy     =  -2.26 kcal/mol
USER    (3) Torsional Free Energy           =  +1.19 kcal/mol
USER    (4) Unbound System's Energy         =  -2.26 kcal/mol
USER
USER
REMARK  Name = Z15677118
REMARK  7 active torsions:
REMARK  status: ('A' for Active; 'I' for Inactive)
REMARK    1  A    between atoms: C_1  and  N_2
REMARK    2  A    between atoms: C_3  and  C_5
REMARK    3  A    between atoms: C_5  and  N_6
REMARK    4  A    between atoms: C_10  and  C_13
REMARK    5  A    between atoms: C_10  and  C_20
REMARK    6  A    between atoms: C_16  and  C_17
REMARK    7  A    between atoms: C_23  and  C_24
REMARK                            x       y       z     vdW  Elec       q    Type
REMARK                         _______ _______ _______ _____ _____    ______ ____
USER                              x       y       z     vdW  Elec       q    Type
USER                           _______ _______ _______ _____ _____    ______ ____
ROOT
ATOM      1  N   UNL     1     163.506 168.808 174.484 -0.24 +0.05    -0.215 N 
ATOM      2  C   UNL     1     163.019 170.059 174.214 -0.17 -0.04    +0.256 C 
ATOM      3  O   UNL     1     161.826 170.313 174.077 -0.22 +0.02    -0.272 OA
ATOM      4  C   UNL     1     164.215 171.065 174.074 -0.18 -0.04    +0.164 C 
ATOM      5  N   UNL     1     165.289 170.112 174.316 -0.15 +0.13    -0.278 N 
ATOM      6  H   UNL     1     166.264 170.300 174.139 -0.16 -0.13    +0.152 HD
ATOM      7  C   UNL     1     164.859 168.819 174.434 -0.18 -0.11    +0.310 C 
ATOM      8  O   UNL     1     165.610 167.861 174.486 -0.17 +0.10    -0.252 OA
ENDROOT
BRANCH   4   9
ATOM      9  C   UNL     1     164.115 172.139 175.169 -0.11 +0.00    -0.011 A 
ATOM     10  C   UNL     1     162.856 172.538 175.655 -0.25 +0.00    +0.007 A 
ATOM     11  C   UNL     1     162.740 173.437 176.724 -0.09 +0.00    +0.003 A 
ATOM     12  C   UNL     1     163.880 173.960 177.341 -0.25 -0.01    -0.050 A 
ATOM     13  C   UNL     1     163.749 174.871 178.527 -0.18 +0.02    +0.044 C 
ATOM     14  C   UNL     1     165.135 173.602 176.845 -0.26 -0.00    +0.003 A 
ATOM     15  C   UNL     1     165.252 172.702 175.776 -0.17 -0.00    +0.007 A 
ENDBRANCH   4   9
BRANCH   4  16
ATOM     16  C   UNL     1     164.438 171.617 172.661 -0.13 +0.00    -0.011 A 
ATOM     17  C   UNL     1     165.017 172.895 172.508 -0.15 -0.00    +0.007 A 
ATOM     18  C   UNL     1     165.422 173.360 171.255 -0.21 -0.00    +0.003 A 
ATOM     19  C   UNL     1     165.242 172.570 170.118 -0.28 -0.00    -0.050 A 
ATOM     20  C   UNL     1     165.745 173.045 168.788 -0.41 +0.01    +0.044 C 
ATOM     21  C   UNL     1     164.595 171.338 170.246 -0.07 -0.00    +0.003 A 
ATOM     22  C   UNL     1     164.197 170.866 171.501 -0.18 -0.00    +0.007 A 
ENDBRANCH   4  16
BRANCH   1  23
ATOM     23  C   UNL     1     162.724 167.651 174.859 -0.19 -0.03    +0.213 C 
BRANCH  23  27
ATOM     24  C   UNL     1     160.280 168.962 177.477 -0.46 -0.03    +0.128 C 
ATOM     25  N   UNL     1     160.956 168.709 176.230 -0.20 +0.03    -0.317 N 
ATOM     26  H   UNL     1     160.943 169.424 175.514 +0.11 -0.00    +0.148 HD
ATOM     27  C   UNL     1     161.951 167.753 176.172 -0.27 -0.02    +0.231 C 
ATOM     28  O   UNL     1     162.309 167.120 177.166 -0.36 +0.03    -0.274 OA
ENDBRANCH  23  27
ENDBRANCH   1  23
TORSDOF 4
TER
ENDMDL
