MODEL        1
USER    Run = 1
USER
USER    Estimated Free Energy of Binding    =  -6.19 kcal/mol  [=(1)+(2)+(3)-(4)]
USER
USER    (1) Final Intermolecular Energy     =  -7.68 kcal/mol
USER        vdW + Hbond + desolv Energy     =  -7.73 kcal/mol
USER        Electrostatic Energy            =  +0.05 kcal/mol
USER        Moving Ligand-Fixed Receptor    =  -7.68 kcal/mol
USER        Moving Ligand-Moving Receptor   =  +0.00 kcal/mol
USER    (2) Final Total Internal Energy     =  -1.21 kcal/mol
USER    (3) Torsional Free Energy           =  +1.49 kcal/mol
USER    (4) Unbound System's Energy         =  -1.21 kcal/mol
USER
USER
REMARK  Name = Z15624282
REMARK  7 active torsions:
REMARK  status: ('A' for Active; 'I' for Inactive)
REMARK    1  A    between atoms: C_1  and  C_2
REMARK    2  A    between atoms: C_6  and  C_7
REMARK    3  A    between atoms: C_9  and  C_11
REMARK    4  A    between atoms: C_11  and  O_12
REMARK    5  A    between atoms: O_12  and  C_13
REMARK    6  A    between atoms: C_13  and  C_15
REMARK    7  A    between atoms: C_19  and  N_21
REMARK                            x       y       z     vdW  Elec       q    Type
REMARK                         _______ _______ _______ _____ _____    ______ ____
USER                              x       y       z     vdW  Elec       q    Type
USER                           _______ _______ _______ _____ _____    ______ ____
ROOT
ATOM      1  C   UNL     1     160.538 169.392 176.105 -0.40 -0.00    +0.061 A 
ATOM      2  C   UNL     1     159.260 168.937 176.488 -0.39 -0.01    +0.039 A 
ATOM      3  C   UNL     1     159.053 167.708 177.151 -0.35 -0.01    +0.045 A 
ATOM      4  C   UNL     1     160.200 166.950 177.434 -0.12 -0.00    +0.024 A 
ATOM      5  C   UNL     1     161.479 167.388 177.053 -0.44 -0.00    +0.003 A 
ATOM      6  C   UNL     1     161.651 168.603 176.387 -0.29 -0.00    +0.015 A 
ENDROOT
BRANCH   3   7
ATOM      7  N   UNL     1     157.733 167.260 177.498 -0.31 +0.09    -0.202 N 
ATOM      8  C   UNL     1     157.271 165.978 177.287 -0.28 -0.11    +0.258 C 
ATOM      9  O   UNL     1     157.772 164.996 176.772 -0.23 +0.11    -0.269 OA
ATOM     10  C   UNL     1     155.925 165.899 177.821 -0.36 -0.02    +0.050 A 
ATOM     11  C   UNL     1     155.592 167.135 178.327 -0.43 -0.03    +0.050 A 
ATOM     12  C   UNL     1     154.354 167.348 178.912 -0.37 -0.01    +0.014 A 
ATOM     13  C   UNL     1     153.466 166.263 178.973 -0.32 -0.00    +0.001 A 
ATOM     14  C   UNL     1     153.823 165.002 178.455 -0.29 -0.00    +0.001 A 
ATOM     15  C   UNL     1     155.072 164.809 177.866 -0.14 -0.01    +0.014 A 
ATOM     16  C   UNL     1     156.750 168.014 178.122 -0.25 -0.14    +0.258 C 
ATOM     17  O   UNL     1     156.727 169.178 178.481 -0.17 +0.19    -0.269 OA
ENDBRANCH   3   7
BRANCH   1  18
ATOM     18  C   UNL     1     160.632 170.688 175.368 -0.23 +0.01    +0.340 C 
ATOM     19  O   UNL     1     159.663 171.233 174.865 -0.36 -0.02    -0.245 OA
BRANCH  18  20
ATOM     20  O   UNL     1     161.902 171.161 175.353 -0.14 -0.00    -0.452 OA
BRANCH  20  21
ATOM     21  C   UNL     1     162.073 172.574 175.599 -0.05 +0.10    +0.328 C 
BRANCH  21  25
ATOM     22  C   UNL     1     165.148 172.483 173.157 -0.20 -0.01    +0.028 C 
ATOM     23  C   UNL     1     164.585 171.649 174.317 -0.22 -0.02    +0.073 C 
ATOM     24  N   UNL     1     164.607 172.391 175.604 -0.02 +0.05    -0.293 N 
ATOM     25  C   UNL     1     163.447 172.886 176.230 -0.10 +0.03    +0.254 C 
ATOM     26  O   UNL     1     163.477 173.535 177.279 -0.32 -0.07    -0.272 OA
ATOM     27  C   UNL     1     165.976 172.633 176.149 -0.15 -0.02    +0.073 C 
ATOM     28  C   UNL     1     166.114 173.398 177.468 -0.12 -0.01    +0.028 C 
ATOM     29  C   UNL     1     166.741 171.300 176.285 -0.22 -0.01    +0.022 C 
ATOM     30  C   UNL     1     166.752 170.497 174.988 -0.17 -0.00    +0.003 C 
ATOM     31  C   UNL     1     165.334 170.313 174.461 -0.30 -0.01    +0.022 C 
ENDBRANCH  21  25
ENDBRANCH  20  21
ENDBRANCH  18  20
ENDBRANCH   1  18
TORSDOF 5
TER
ENDMDL
