MODEL        1
USER    Run = 1
USER
USER    Estimated Free Energy of Binding    =  -4.60 kcal/mol  [=(1)+(2)+(3)-(4)]
USER
USER    (1) Final Intermolecular Energy     =  -6.09 kcal/mol
USER        vdW + Hbond + desolv Energy     =  -5.99 kcal/mol
USER        Electrostatic Energy            =  -0.10 kcal/mol
USER        Moving Ligand-Fixed Receptor    =  -6.09 kcal/mol
USER        Moving Ligand-Moving Receptor   =  +0.00 kcal/mol
USER    (2) Final Total Internal Energy     =  -2.09 kcal/mol
USER    (3) Torsional Free Energy           =  +1.49 kcal/mol
USER    (4) Unbound System's Energy         =  -2.09 kcal/mol
USER
USER
REMARK  Name = Z15644427
REMARK  5 active torsions:
REMARK  status: ('A' for Active; 'I' for Inactive)
REMARK    1  A    between atoms: C_2  and  C_4
REMARK    2  A    between atoms: C_4  and  S_5
REMARK    3  A    between atoms: S_5  and  C_6
REMARK    4  A    between atoms: C_9  and  C_10
REMARK    5  A    between atoms: N_18  and  C_19
REMARK                            x       y       z     vdW  Elec       q    Type
REMARK                         _______ _______ _______ _____ _____    ______ ____
USER                              x       y       z     vdW  Elec       q    Type
USER                           _______ _______ _______ _____ _____    ______ ____
ROOT
ATOM      1  C   UNL     1     164.816 171.807 172.486 -0.08 -0.04    +0.193 A 
ATOM      2  N   UNL     1     164.178 171.535 173.678 -0.06 +0.07    -0.299 N 
ATOM      3  C   UNL     1     163.531 170.302 173.459 -0.12 -0.04    +0.167 A 
ATOM      4  N   UNL     1     163.664 170.001 172.179 -0.23 +0.03    -0.128 NA
ATOM      5  N   UNL     1     164.466 170.930 171.579 -0.25 +0.03    -0.122 NA
ENDROOT
BRANCH   3   6
ATOM      6  C   UNL     1     162.841 169.420 174.438 -0.31 -0.01    +0.038 A 
ATOM      7  C   UNL     1     163.269 168.100 174.707 -0.35 -0.01    +0.053 A 
ATOM      8 CL   UNL     1     164.469 167.296 173.752 -0.46 +0.02    -0.083 Cl
ATOM      9  C   UNL     1     162.703 167.346 175.748 -0.34 -0.01    +0.040 A 
ATOM     10  C   UNL     1     161.663 167.875 176.504 -0.38 -0.00    +0.042 A 
ATOM     11 CL   UNL     1     161.006 166.982 177.820 -0.31 +0.02    -0.084 Cl
ATOM     12  C   UNL     1     161.167 169.138 176.213 -0.41 -0.00    +0.021 A 
ATOM     13  C   UNL     1     161.770 169.910 175.212 -0.38 -0.00    +0.014 A 
ENDBRANCH   3   6
BRANCH   2  14
ATOM     14  C   UNL     1     164.097 172.293 174.932 -0.17 -0.01    +0.091 C 
ATOM     15  C   UNL     1     162.957 173.328 174.874 -0.05 +0.01    +0.025 C 
ATOM     16  C   UNL     1     163.386 174.556 174.087 -0.16 +0.00    +0.002 C 
ATOM     17  C   UNL     1     164.473 175.279 174.863 -0.16 +0.00    +0.000 C 
ATOM     18  C   UNL     1     165.685 174.380 175.090 -0.01 -0.00    +0.002 C 
ATOM     19  C   UNL     1     165.334 172.967 175.580 -0.19 -0.01    +0.025 C 
ENDBRANCH   2  14
BRANCH   1  20
ATOM     20  S   UNL     1     166.009 173.029 172.234 -0.21 +0.01    -0.077 S 
BRANCH  20  21
ATOM     21  C   UNL     1     165.342 174.023 170.875 -0.19 -0.01    +0.172 C 
BRANCH  21  25
ATOM     22  N   UNL     1     164.324 172.393 169.356 -0.17 +0.07    -0.329 N 
ATOM     23  H   UNL     1     163.622 172.213 170.060 +0.10 -0.04    +0.145 HD
ATOM     24  H   UNL     1     164.398 171.744 168.579 +0.07 -0.03    +0.145 HD
ATOM     25  C   UNL     1     165.414 173.181 169.609 -0.26 +0.03    +0.221 C 
ATOM     26  O   UNL     1     166.380 173.166 168.859 -0.91 -0.18    -0.275 OA
ENDBRANCH  21  25
ENDBRANCH  20  21
ENDBRANCH   1  20
TORSDOF 5
TER
ENDMDL
