MODEL        1
USER    Run = 1
USER
USER    Estimated Free Energy of Binding    =  -4.99 kcal/mol  [=(1)+(2)+(3)-(4)]
USER
USER    (1) Final Intermolecular Energy     =  -7.38 kcal/mol
USER        vdW + Hbond + desolv Energy     =  -7.27 kcal/mol
USER        Electrostatic Energy            =  -0.11 kcal/mol
USER        Moving Ligand-Fixed Receptor    =  -7.38 kcal/mol
USER        Moving Ligand-Moving Receptor   =  +0.00 kcal/mol
USER    (2) Final Total Internal Energy     =  -1.38 kcal/mol
USER    (3) Torsional Free Energy           =  +2.39 kcal/mol
USER    (4) Unbound System's Energy         =  -1.38 kcal/mol
USER
USER
REMARK  Name = Z15682977
REMARK  11 active torsions:
REMARK  status: ('A' for Active; 'I' for Inactive)
REMARK    1  A    between atoms: C_1  and  O_2
REMARK    2  A    between atoms: O_2  and  C_3
REMARK    3  A    between atoms: C_6  and  C_7
REMARK    4  A    between atoms: C_7  and  C_8
REMARK    5  A    between atoms: C_8  and  N_9
REMARK    6  A    between atoms: N_9  and  C_10
REMARK    7  A    between atoms: C_11  and  C_13
REMARK    8  A    between atoms: C_13  and  O_14
REMARK    9  A    between atoms: O_14  and  C_15
REMARK   10  A    between atoms: C_28  and  O_29
REMARK   11  A    between atoms: O_29  and  C_30
REMARK                            x       y       z     vdW  Elec       q    Type
REMARK                         _______ _______ _______ _____ _____    ______ ____
USER                              x       y       z     vdW  Elec       q    Type
USER                           _______ _______ _______ _____ _____    ______ ____
ROOT
ATOM      1  N   UNL     1     161.552 167.873 177.029 -0.24 +0.03    -0.301 N 
ATOM      2  C   UNL     1     161.998 167.940 175.707 -0.18 -0.02    +0.253 C 
ATOM      3  O   UNL     1     161.827 168.942 175.006 -0.25 +0.02    -0.272 OA
ATOM      4  C   UNL     1     161.750 166.705 177.871 -0.36 -0.02    +0.132 C 
ENDROOT
BRANCH   2   5
ATOM      5  C   UNL     1     162.643 166.684 175.099 +0.21 -0.05    +0.326 C 
BRANCH   5   6
ATOM      6  O   UNL     1     163.905 166.865 174.453 -0.11 +0.13    -0.466 OA
BRANCH   6   7
ATOM      7  C   UNL     1     163.829 167.859 173.480 -0.22 -0.05    +0.226 A 
ATOM      8  C   UNL     1     164.566 169.043 173.636 -0.32 -0.02    +0.065 A 
ATOM      9  C   UNL     1     164.411 169.970 172.591 -0.25 -0.03    +0.096 A 
ATOM     10  C   UNL     1     165.110 171.184 172.679 -0.23 -0.02    +0.068 A 
ATOM     11  C   UNL     1     165.947 171.490 173.753 -0.12 -0.02    +0.042 A 
ATOM     12  C   UNL     1     166.096 170.567 174.776 -0.18 -0.03    +0.043 A 
ATOM     13 CL   UNL     1     167.131 170.935 176.099 -0.43 +0.07    -0.084 Cl
ATOM     14 CL   UNL     1     164.963 172.379 171.428 -0.36 +0.01    -0.081 Cl
ATOM     15  N   UNL     1     163.619 169.724 171.533 -0.17 +0.07    -0.234 NA
ATOM     16  C   UNL     1     162.976 168.559 171.494 -0.19 -0.08    +0.225 A 
ATOM     17  C   UNL     1     165.417 169.350 174.730 -0.08 -0.02    +0.035 A 
ATOM     18  N   UNL     1     163.046 167.607 172.415 -0.18 +0.05    -0.201 NA
ENDBRANCH   6   7
ENDBRANCH   5   6
ENDBRANCH   2   5
BRANCH   1  19
ATOM     19  C   UNL     1     160.669 168.931 177.534 -0.42 -0.03    +0.112 C 
BRANCH  19  20
ATOM     20  C   UNL     1     159.367 169.080 176.728 -0.47 -0.01    +0.054 C 
BRANCH  20  24
ATOM     21  C   UNL     1     156.196 166.426 178.013 -0.30 -0.08    +0.162 A 
ATOM     22  C   UNL     1     157.395 165.884 177.524 -0.27 -0.07    +0.162 A 
ATOM     23  C   UNL     1     158.431 166.751 177.133 -0.29 -0.02    +0.053 A 
ATOM     24  C   UNL     1     158.296 168.145 177.229 -0.40 +0.02    -0.042 A 
ATOM     25  C   UNL     1     157.128 168.664 177.783 -0.42 -0.00    +0.007 A 
ATOM     26  C   UNL     1     156.095 167.815 178.173 -0.44 -0.03    +0.050 A 
BRANCH  21  28
ATOM     27  C   UNL     1     154.186 166.179 179.225 -0.24 -0.16    +0.277 C 
ATOM     28  O   UNL     1     155.157 165.598 178.355 -0.10 +0.23    -0.491 OA
ENDBRANCH  21  28
BRANCH  22  29
ATOM     29  O   UNL     1     157.730 164.566 177.336 -0.08 +0.20    -0.491 OA
ATOM     30  C   UNL     1     157.005 163.800 176.385 -0.15 -0.17    +0.277 C 
ENDBRANCH  22  29
ENDBRANCH  20  24
ENDBRANCH  19  20
ENDBRANCH   1  19
TORSDOF 8
TER
ENDMDL
