MODEL        1
USER    Run = 1
USER
USER    Estimated Free Energy of Binding    =  -4.18 kcal/mol  [=(1)+(2)+(3)-(4)]
USER
USER    (1) Final Intermolecular Energy     =  -5.67 kcal/mol
USER        vdW + Hbond + desolv Energy     =  -5.48 kcal/mol
USER        Electrostatic Energy            =  -0.19 kcal/mol
USER        Moving Ligand-Fixed Receptor    =  -5.67 kcal/mol
USER        Moving Ligand-Moving Receptor   =  +0.00 kcal/mol
USER    (2) Final Total Internal Energy     =  -1.34 kcal/mol
USER    (3) Torsional Free Energy           =  +1.49 kcal/mol
USER    (4) Unbound System's Energy         =  -1.34 kcal/mol
USER
USER
REMARK  Name = Z15671836
REMARK  7 active torsions:
REMARK  status: ('A' for Active; 'I' for Inactive)
REMARK    1  A    between atoms: C_1  and  N_2
REMARK    2  A    between atoms: N_2  and  C_3
REMARK    3  A    between atoms: C_3  and  C_4
REMARK    4  A    between atoms: C_12  and  C_14
REMARK    5  A    between atoms: C_14  and  N_15
REMARK    6  A    between atoms: C_19  and  C_20
REMARK    7  A    between atoms: C_19  and  C_21
REMARK                            x       y       z     vdW  Elec       q    Type
REMARK                         _______ _______ _______ _____ _____    ______ ____
USER                              x       y       z     vdW  Elec       q    Type
USER                           _______ _______ _______ _____ _____    ______ ____
ROOT
ATOM      1  C   UNL     1     163.756 176.076 173.658 -0.05 -0.05    +0.132 C 
ATOM      2  N   UNL     1     164.214 174.727 173.951 -0.05 +0.03    -0.299 N 
ATOM      3  C   UNL     1     164.013 174.245 175.244 -0.08 +0.05    +0.234 C 
ATOM      4  O   UNL     1     163.384 174.909 176.074 -0.69 -0.25    -0.274 OA
ENDROOT
BRANCH   3   5
ATOM      5  C   UNL     1     164.580 172.872 175.638 -0.10 -0.02    +0.213 C 
BRANCH   5   6
ATOM      6  N   UNL     1     164.075 171.773 174.841 -0.10 +0.04    -0.215 N 
ATOM      7  C   UNL     1     164.863 170.817 174.265 -0.11 -0.09    +0.247 C 
ATOM      8  O   UNL     1     166.088 170.790 174.261 -0.23 +0.18    -0.273 OA
ATOM      9  C   UNL     1     163.965 169.731 173.637 -0.32 -0.03    +0.113 C 
ATOM     10  C   UNL     1     163.955 169.908 172.124 -0.32 -0.01    +0.042 C 
ATOM     11  N   UNL     1     162.702 170.149 174.190 -0.15 +0.04    -0.285 N 
ATOM     12  H   UNL     1     161.819 169.670 174.084 +0.10 -0.01    +0.151 HD
ATOM     13  C   UNL     1     162.780 171.356 174.852 -0.02 -0.02    +0.310 C 
ATOM     14  O   UNL     1     161.820 171.888 175.386 -0.30 -0.03    -0.252 OA
BRANCH   9  15
ATOM     15  C   UNL     1     164.347 168.361 174.144 -0.49 -0.01    +0.021 C 
ATOM     16  C   UNL     1     163.792 167.082 173.549 -0.49 -0.00    +0.006 C 
ATOM     17  C   UNL     1     163.410 167.486 174.945 -0.47 -0.00    +0.006 C 
ENDBRANCH   9  15
ENDBRANCH   5   6
ENDBRANCH   3   5
BRANCH   2  18
ATOM     18  C   UNL     1     164.570 173.904 172.800 -0.09 -0.03    +0.147 C 
BRANCH  18  19
ATOM     19  C   UNL     1     165.337 174.580 171.686 -0.16 -0.00    +0.023 A 
ATOM     20  C   UNL     1     165.201 174.140 170.356 -0.25 -0.00    +0.048 A 
ATOM     21 CL   UNL     1     164.035 172.944 169.898 -0.50 +0.02    -0.083 Cl
ATOM     22  C   UNL     1     166.019 174.642 169.334 -0.26 +0.00    +0.020 A 
ATOM     23  C   UNL     1     166.996 175.592 169.617 -0.18 +0.00    +0.004 A 
ATOM     24  C   UNL     1     167.132 176.058 170.918 -0.15 -0.00    +0.039 A 
ATOM     25  C   UNL     1     166.310 175.558 171.930 -0.05 -0.02    +0.130 A 
ATOM     26  F   UNL     1     166.516 176.033 173.165 +0.03 +0.04    -0.205 F 
ENDBRANCH  18  19
ENDBRANCH   2  18
TORSDOF 5
TER
ENDMDL
