MODEL        1
USER    Run = 1
USER
USER    Estimated Free Energy of Binding    =  -5.00 kcal/mol  [=(1)+(2)+(3)-(4)]
USER
USER    (1) Final Intermolecular Energy     =  -6.20 kcal/mol
USER        vdW + Hbond + desolv Energy     =  -6.20 kcal/mol
USER        Electrostatic Energy            =  +0.01 kcal/mol
USER        Moving Ligand-Fixed Receptor    =  -6.20 kcal/mol
USER        Moving Ligand-Moving Receptor   =  +0.00 kcal/mol
USER    (2) Final Total Internal Energy     =  -1.35 kcal/mol
USER    (3) Torsional Free Energy           =  +1.19 kcal/mol
USER    (4) Unbound System's Energy         =  -1.35 kcal/mol
USER
USER
REMARK  Name = Z15671734
REMARK  6 active torsions:
REMARK  status: ('A' for Active; 'I' for Inactive)
REMARK    1  A    between atoms: C_1  and  C_2
REMARK    2  A    between atoms: C_8  and  N_9
REMARK    3  A    between atoms: C_10  and  C_12
REMARK    4  A    between atoms: C_12  and  N_13
REMARK    5  A    between atoms: C_17  and  C_18
REMARK    6  A    between atoms: C_17  and  C_19
REMARK                            x       y       z     vdW  Elec       q    Type
REMARK                         _______ _______ _______ _____ _____    ______ ____
USER                              x       y       z     vdW  Elec       q    Type
USER                           _______ _______ _______ _____ _____    ______ ____
ROOT
ATOM      1  C   UNL     1     160.828 169.598 176.909 -0.31 -0.02    +0.214 C 
ENDROOT
BRANCH   1   2
ATOM      2  N   UNL     1     161.710 169.015 175.921 -0.23 +0.02    -0.215 N 
ATOM      3  C   UNL     1     162.114 169.596 174.750 -0.23 -0.02    +0.247 C 
ATOM      4  O   UNL     1     161.742 170.673 174.308 -0.16 +0.01    -0.273 OA
ATOM      5  C   UNL     1     163.140 168.649 174.079 -0.36 -0.02    +0.113 C 
ATOM      6  C   UNL     1     162.722 168.274 172.661 -0.25 -0.01    +0.042 C 
ATOM      7  N   UNL     1     163.006 167.504 174.945 -0.23 +0.05    -0.285 N 
ATOM      8  H   UNL     1     163.458 166.609 174.813 +0.10 -0.04    +0.151 HD
ATOM      9  C   UNL     1     162.131 167.725 175.972 -0.20 -0.03    +0.310 C 
ATOM     10  O   UNL     1     161.783 166.886 176.783 -0.34 +0.03    -0.252 OA
BRANCH   5  11
ATOM     11  C   UNL     1     164.532 169.243 174.107 -0.42 -0.01    +0.021 C 
ATOM     12  C   UNL     1     164.821 170.691 174.446 -0.24 -0.00    +0.006 C 
ATOM     13  C   UNL     1     165.009 170.207 173.037 -0.35 -0.00    +0.006 C 
ENDBRANCH   5  11
ENDBRANCH   1   2
BRANCH   1  16
ATOM     14  N   UNL     1     159.259 167.782 177.408 -0.20 +0.08    -0.284 N 
ATOM     15  H   UNL     1     159.950 167.588 178.130 +0.12 -0.05    +0.155 HD
ATOM     16  C   UNL     1     159.429 168.991 176.734 -0.33 -0.06    +0.235 C 
ATOM     17  O   UNL     1     158.549 169.610 176.138 -0.26 +0.11    -0.274 OA
BRANCH  14  20
ATOM     18  C   UNL     1     156.676 168.987 178.218 -0.05 -0.03    +0.045 C 
ATOM     19  C   UNL     1     156.843 167.553 177.788 -0.45 +0.02    -0.029 A 
ATOM     20  C   UNL     1     158.087 166.980 177.430 -0.29 -0.01    +0.038 A 
ATOM     21  C   UNL     1     158.132 165.615 177.108 -0.09 -0.01    +0.043 A 
ATOM     22  C   UNL     1     156.970 164.842 177.099 -0.35 -0.02    +0.043 A 
ATOM     23 CL   UNL     1     157.055 163.175 176.677 -0.42 +0.05    -0.084 Cl
ATOM     24  C   UNL     1     155.745 165.403 177.427 -0.23 -0.01    +0.020 A 
ATOM     25  C   UNL     1     155.684 166.748 177.785 -0.43 -0.00    +0.006 A 
ENDBRANCH  14  20
ENDBRANCH   1  16
TORSDOF 4
TER
ENDMDL
