MODEL        1
USER    Run = 1
USER
USER    Estimated Free Energy of Binding    =  -4.66 kcal/mol  [=(1)+(2)+(3)-(4)]
USER
USER    (1) Final Intermolecular Energy     =  -5.86 kcal/mol
USER        vdW + Hbond + desolv Energy     =  -5.84 kcal/mol
USER        Electrostatic Energy            =  -0.02 kcal/mol
USER        Moving Ligand-Fixed Receptor    =  -5.86 kcal/mol
USER        Moving Ligand-Moving Receptor   =  +0.00 kcal/mol
USER    (2) Final Total Internal Energy     =  -1.20 kcal/mol
USER    (3) Torsional Free Energy           =  +1.19 kcal/mol
USER    (4) Unbound System's Energy         =  -1.20 kcal/mol
USER
USER
REMARK  Name = Z15685563
REMARK  4 active torsions:
REMARK  status: ('A' for Active; 'I' for Inactive)
REMARK    1  A    between atoms: C_2  and  C_4
REMARK    2  A    between atoms: C_9  and  O_10
REMARK    3  A    between atoms: O_10  and  C_11
REMARK    4  A    between atoms: C_11  and  C_12
REMARK                            x       y       z     vdW  Elec       q    Type
REMARK                         _______ _______ _______ _____ _____    ______ ____
USER                              x       y       z     vdW  Elec       q    Type
USER                           _______ _______ _______ _____ _____    ______ ____
ROOT
ATOM      1  O   UNL     1     160.575 169.759 176.491 -0.15 +0.04    -0.485 OA
ENDROOT
BRANCH   1   3
ATOM      2  C   UNL     1     162.164 168.047 175.887 -0.28 -0.01    +0.078 A 
ATOM      3  C   UNL     1     161.506 169.261 175.601 -0.28 -0.01    +0.133 A 
ATOM      4  C   UNL     1     161.851 169.946 174.419 -0.31 -0.00    +0.046 A 
ATOM      5  C   UNL     1     162.779 169.426 173.516 -0.34 -0.00    +0.004 A 
ATOM      6  C   UNL     1     163.396 168.214 173.780 -0.41 -0.00    +0.001 A 
ATOM      7  C   UNL     1     163.096 167.535 174.959 -0.38 -0.00    +0.017 A 
BRANCH   2  11
ATOM      8  N   UNL     1     161.460 167.805 178.231 -0.05 +0.07    -0.325 N 
ATOM      9  H   UNL     1     161.300 168.803 178.275 -0.25 -0.05    +0.145 HD
ATOM     10  H   UNL     1     161.412 167.252 179.078 +0.14 -0.05    +0.145 HD
ATOM     11  C   UNL     1     161.965 167.212 177.116 -0.27 -0.03    +0.245 C 
ATOM     12  O   UNL     1     162.265 166.023 177.140 -0.26 +0.05    -0.270 OA
ENDBRANCH   2  11
ENDBRANCH   1   3
BRANCH   1  13
ATOM     13  C   UNL     1     159.210 169.686 176.053 -0.05 -0.05    +0.284 C 
BRANCH  13  14
ATOM     14  C   UNL     1     158.428 168.641 176.825 -0.36 -0.04    +0.086 C 
ATOM     15  N   UNL     1     157.327 169.105 177.517 -0.29 +0.14    -0.224 NA
ATOM     16  C   UNL     1     156.585 168.205 178.063 -0.27 -0.11    +0.180 A 
ATOM     17  N   UNL     1     156.794 166.845 178.026 -0.25 +0.12    -0.262 N 
ATOM     18  C   UNL     1     155.854 166.100 178.705 -0.23 -0.05    +0.104 A 
ATOM     19  C   UNL     1     154.893 166.834 179.279 -0.38 -0.04    +0.067 A 
ATOM     20  C   UNL     1     157.870 166.325 177.352 -0.23 -0.10    +0.259 C 
ATOM     21  O   UNL     1     158.135 165.132 177.236 -0.20 +0.09    -0.267 OA
ATOM     22  S   UNL     1     155.125 168.537 178.981 -0.42 +0.05    -0.058 S 
ATOM     23  C   UNL     1     158.734 167.338 176.710 -0.30 -0.03    +0.097 C 
ENDBRANCH  13  14
ENDBRANCH   1  13
TORSDOF 4
TER
ENDMDL
