MODEL        1
USER    Run = 1
USER
USER    Estimated Free Energy of Binding    =  -4.15 kcal/mol  [=(1)+(2)+(3)-(4)]
USER
USER    (1) Final Intermolecular Energy     =  -5.94 kcal/mol
USER        vdW + Hbond + desolv Energy     =  -5.71 kcal/mol
USER        Electrostatic Energy            =  -0.23 kcal/mol
USER        Moving Ligand-Fixed Receptor    =  -5.94 kcal/mol
USER        Moving Ligand-Moving Receptor   =  +0.00 kcal/mol
USER    (2) Final Total Internal Energy     =  -2.46 kcal/mol
USER    (3) Torsional Free Energy           =  +1.79 kcal/mol
USER    (4) Unbound System's Energy         =  -2.46 kcal/mol
USER
USER
REMARK  Name = Z15685415
REMARK  7 active torsions:
REMARK  status: ('A' for Active; 'I' for Inactive)
REMARK    1  A    between atoms: C_1  and  C_2
REMARK    2  A    between atoms: C_2  and  C_3
REMARK    3  A    between atoms: C_7  and  N_8
REMARK    4  A    between atoms: C_9  and  C_11
REMARK    5  A    between atoms: C_11  and  O_12
REMARK    6  A    between atoms: O_12  and  C_13
REMARK    7  A    between atoms: C_18  and  C_19
REMARK                            x       y       z     vdW  Elec       q    Type
REMARK                         _______ _______ _______ _____ _____    ______ ____
USER                              x       y       z     vdW  Elec       q    Type
USER                           _______ _______ _______ _____ _____    ______ ____
ROOT
ATOM      1  C   UNL     1     164.906 170.274 173.018 -0.14 -0.11    +0.325 C 
ENDROOT
BRANCH   1   4
ATOM      2  N   UNL     1     162.855 170.354 174.324 -0.13 +0.04    -0.283 N 
ATOM      3  H   UNL     1     162.983 171.352 174.211 +0.09 -0.02    +0.155 HD
ATOM      4  C   UNL     1     163.752 169.523 173.668 -0.23 -0.06    +0.255 C 
ATOM      5  O   UNL     1     163.666 168.304 173.546 -0.29 +0.06    -0.272 OA
BRANCH   2   8
ATOM      6  C   UNL     1     160.732 168.425 176.682 -0.43 +0.01    -0.046 A 
ATOM      7  C   UNL     1     161.837 168.887 175.944 -0.26 -0.00    +0.027 A 
ATOM      8  C   UNL     1     161.705 169.949 175.039 -0.37 -0.00    +0.034 A 
ATOM      9  C   UNL     1     160.451 170.536 174.873 -0.41 +0.00    +0.023 A 
ATOM     10  C   UNL     1     159.349 170.091 175.606 -0.30 -0.00    +0.002 A 
ATOM     11  C   UNL     1     159.489 169.041 176.507 -0.44 -0.00    +0.003 A 
BRANCH   6  13
ATOM     12  C   UNL     1     162.254 166.635 177.514 -0.44 -0.00    +0.009 C 
ATOM     13  C   UNL     1     160.860 167.238 177.602 -0.39 -0.01    +0.032 C 
ENDBRANCH   6  13
ENDBRANCH   2   8
ENDBRANCH   1   4
BRANCH   1  14
ATOM     14  O   UNL     1     164.923 171.548 173.646 -0.02 +0.14    -0.482 OA
BRANCH  14  15
ATOM     15  C   UNL     1     165.576 171.685 174.840 -0.08 -0.05    +0.133 A 
ATOM     16  C   UNL     1     165.161 172.736 175.678 -0.12 -0.02    +0.078 A 
ATOM     17  C   UNL     1     165.754 172.896 176.944 -0.26 -0.00    +0.017 A 
ATOM     18  C   UNL     1     166.765 172.038 177.366 -0.35 -0.00    +0.001 A 
ATOM     19  C   UNL     1     167.191 171.011 176.528 -0.32 -0.00    +0.004 A 
ATOM     20  C   UNL     1     166.602 170.833 175.272 -0.20 -0.03    +0.046 A 
BRANCH  16  21
ATOM     21  C   UNL     1     164.089 173.711 175.320 -0.08 +0.02    +0.245 C 
ATOM     22  N   UNL     1     163.937 174.047 174.006 -0.03 +0.02    -0.325 N 
ATOM     23  H   UNL     1     163.193 174.683 173.757 +0.05 -0.01    +0.145 HD
ATOM     24  H   UNL     1     164.467 173.597 173.270 +0.08 -0.02    +0.145 HD
ATOM     25  O   UNL     1     163.381 174.223 176.181 -0.64 -0.17    -0.270 OA
ENDBRANCH  16  21
ENDBRANCH  14  15
ENDBRANCH   1  14
TORSDOF 6
TER
ENDMDL
