MODEL        1
USER    Run = 1
USER
USER    Estimated Free Energy of Binding    =  -6.05 kcal/mol  [=(1)+(2)+(3)-(4)]
USER
USER    (1) Final Intermolecular Energy     =  -7.84 kcal/mol
USER        vdW + Hbond + desolv Energy     =  -7.66 kcal/mol
USER        Electrostatic Energy            =  -0.18 kcal/mol
USER        Moving Ligand-Fixed Receptor    =  -7.84 kcal/mol
USER        Moving Ligand-Moving Receptor   =  +0.00 kcal/mol
USER    (2) Final Total Internal Energy     =  -2.29 kcal/mol
USER    (3) Torsional Free Energy           =  +1.79 kcal/mol
USER    (4) Unbound System's Energy         =  -2.29 kcal/mol
USER
USER
REMARK  Name = Z15623383
REMARK  6 active torsions:
REMARK  status: ('A' for Active; 'I' for Inactive)
REMARK    1  A    between atoms: C_2  and  C_3
REMARK    2  A    between atoms: C_3  and  O_4
REMARK    3  A    between atoms: O_4  and  C_5
REMARK    4  A    between atoms: C_5  and  C_7
REMARK    5  A    between atoms: C_11  and  N_13
REMARK    6  A    between atoms: N_27  and  C_28
REMARK                            x       y       z     vdW  Elec       q    Type
REMARK                         _______ _______ _______ _____ _____    ______ ____
USER                              x       y       z     vdW  Elec       q    Type
USER                           _______ _______ _______ _____ _____    ______ ____
ROOT
ATOM      1  C   UNL     1     158.457 168.364 177.231 -0.22 -0.14    +0.340 C 
ATOM      2  O   UNL     1     158.620 169.356 177.923 -0.29 +0.09    -0.245 OA
ENDROOT
BRANCH   1   3
ATOM      3  C   UNL     1     157.416 167.325 177.488 -0.39 -0.03    +0.061 A 
ATOM      4  C   UNL     1     156.312 167.552 178.328 -0.41 -0.02    +0.039 A 
ATOM      5  C   UNL     1     155.285 166.599 178.503 -0.40 -0.02    +0.045 A 
ATOM      6  C   UNL     1     155.449 165.367 177.851 -0.27 -0.01    +0.024 A 
ATOM      7  C   UNL     1     156.558 165.119 177.027 -0.37 -0.00    +0.003 A 
ATOM      8  C   UNL     1     157.529 166.099 176.833 -0.39 -0.01    +0.015 A 
BRANCH   5   9
ATOM      9  N   UNL     1     154.113 166.904 179.276 -0.28 +0.15    -0.202 N 
ATOM     10  C   UNL     1     153.256 165.954 179.788 -0.21 -0.15    +0.258 C 
ATOM     11  O   UNL     1     153.230 164.739 179.708 -0.18 +0.10    -0.269 OA
ATOM     12  C   UNL     1     152.250 166.644 180.573 -0.25 -0.03    +0.050 A 
ATOM     13  C   UNL     1     152.517 167.993 180.521 -0.25 -0.05    +0.050 A 
ATOM     14  C   UNL     1     151.727 168.898 181.209 -0.23 -0.01    +0.014 A 
ATOM     15  C   UNL     1     150.653 168.386 181.957 -0.19 -0.00    +0.001 A 
ATOM     16  C   UNL     1     150.393 167.004 182.000 -0.26 -0.00    +0.001 A 
ATOM     17  C   UNL     1     151.201 166.111 181.302 -0.30 -0.01    +0.014 A 
ATOM     18  C   UNL     1     153.710 168.169 179.686 -0.17 -0.27    +0.258 C 
ATOM     19  O   UNL     1     154.175 169.275 179.475 -0.30 +0.30    -0.269 OA
ENDBRANCH   5   9
ENDBRANCH   1   3
BRANCH   1  20
ATOM     20  O   UNL     1     159.208 168.056 176.147 +0.05 +0.08    -0.452 OA
BRANCH  20  21
ATOM     21  C   UNL     1     160.595 167.848 176.414 -0.06 -0.03    +0.328 C 
BRANCH  21  23
ATOM     22  O   UNL     1     162.648 168.819 175.600 -0.11 +0.04    -0.272 OA
ATOM     23  C   UNL     1     161.490 169.006 175.980 -0.24 -0.02    +0.258 C 
ATOM     24  N   UNL     1     160.910 170.259 176.095 -0.28 +0.01    -0.237 N 
ATOM     25  H   UNL     1     159.936 170.313 176.378 +0.13 -0.01    +0.159 HD
ATOM     26  C   UNL     1     161.441 171.481 175.746 -0.19 +0.03    +0.306 C 
ATOM     27  N   UNL     1     162.672 171.433 175.162 -0.10 +0.01    -0.296 N 
ATOM     28  H   UNL     1     163.162 170.545 175.254 +0.11 -0.03    +0.150 HD
ATOM     29  O   UNL     1     160.796 172.508 175.923 -0.37 -0.14    -0.252 OA
BRANCH  27  30
ATOM     30  C   UNL     1     163.395 172.558 174.579 -0.03 -0.00    +0.074 C 
ATOM     31  C   UNL     1     164.786 172.167 174.056 -0.23 -0.01    +0.022 C 
ATOM     32  C   UNL     1     165.693 171.675 175.184 -0.19 -0.00    +0.002 C 
ATOM     33  C   UNL     1     165.832 172.724 176.285 -0.25 -0.00    +0.000 C 
ATOM     34  C   UNL     1     164.479 173.230 176.783 -0.31 +0.00    +0.002 C 
ATOM     35  C   UNL     1     163.561 173.666 175.636 -0.23 +0.01    +0.022 C 
ENDBRANCH  27  30
ENDBRANCH  21  23
ENDBRANCH  20  21
ENDBRANCH   1  20
TORSDOF 6
TER
ENDMDL
