MODEL        1
USER    Run = 1
USER
USER    Estimated Free Energy of Binding    =  -4.22 kcal/mol  [=(1)+(2)+(3)-(4)]
USER
USER    (1) Final Intermolecular Energy     =  -6.31 kcal/mol
USER        vdW + Hbond + desolv Energy     =  -6.30 kcal/mol
USER        Electrostatic Energy            =  -0.00 kcal/mol
USER        Moving Ligand-Fixed Receptor    =  -6.31 kcal/mol
USER        Moving Ligand-Moving Receptor   =  +0.00 kcal/mol
USER    (2) Final Total Internal Energy     =  -2.54 kcal/mol
USER    (3) Torsional Free Energy           =  +2.09 kcal/mol
USER    (4) Unbound System's Energy         =  -2.54 kcal/mol
USER
USER
REMARK  Name = Z15685945
REMARK  7 active torsions:
REMARK  status: ('A' for Active; 'I' for Inactive)
REMARK    1  A    between atoms: C_2  and  C_4
REMARK    2  A    between atoms: C_9  and  O_10
REMARK    3  A    between atoms: O_10  and  C_11
REMARK    4  A    between atoms: C_11  and  C_12
REMARK    5  A    between atoms: N_14  and  C_15
REMARK    6  A    between atoms: C_15  and  C_16
REMARK    7  A    between atoms: C_15  and  C_22
REMARK                            x       y       z     vdW  Elec       q    Type
REMARK                         _______ _______ _______ _____ _____    ______ ____
USER                              x       y       z     vdW  Elec       q    Type
USER                           _______ _______ _______ _____ _____    ______ ____
ROOT
ATOM      1  C   UNL     1     163.703 168.954 173.278 -0.26 -0.06    +0.251 C 
ATOM      2  N   UNL     1     164.724 169.848 173.134 -0.16 +0.10    -0.302 N 
ATOM      3  H   UNL     1     165.597 169.434 172.836 +0.02 -0.07    +0.150 HD
ATOM      4  O   UNL     1     163.901 167.766 173.021 -0.28 +0.06    -0.272 OA
ENDROOT
BRANCH   1   5
ATOM      5  C   UNL     1     162.325 169.473 173.679 -0.12 -0.04    +0.324 C 
BRANCH   5   6
ATOM      6  O   UNL     1     162.217 169.800 175.067 -0.08 +0.05    -0.482 OA
BRANCH   6   8
ATOM      7  C   UNL     1     161.074 168.238 176.505 -0.36 -0.01    +0.078 A 
ATOM      8  C   UNL     1     161.061 169.401 175.702 -0.31 -0.01    +0.133 A 
ATOM      9  C   UNL     1     159.854 170.118 175.579 -0.39 -0.00    +0.046 A 
ATOM     10  C   UNL     1     158.689 169.706 176.223 +0.11 -0.00    +0.004 A 
ATOM     11  C   UNL     1     158.697 168.556 176.995 -0.47 -0.00    +0.001 A 
ATOM     12  C   UNL     1     159.879 167.831 177.134 -0.43 -0.00    +0.017 A 
BRANCH   7  16
ATOM     13  N   UNL     1     163.348 167.438 175.972 -0.14 +0.06    -0.325 N 
ATOM     14  H   UNL     1     163.332 167.958 175.105 +0.10 -0.03    +0.145 HD
ATOM     15  H   UNL     1     164.104 166.787 176.145 +0.22 -0.04    +0.145 HD
ATOM     16  C   UNL     1     162.262 167.370 176.789 -0.22 -0.03    +0.245 C 
ATOM     17  O   UNL     1     162.279 166.611 177.756 -0.37 +0.04    -0.270 OA
ENDBRANCH   7  16
ENDBRANCH   6   8
ENDBRANCH   5   6
ENDBRANCH   1   5
BRANCH   2  18
ATOM     18  C   UNL     1     164.690 171.282 173.385 -0.21 -0.04    +0.134 C 
BRANCH  18  19
ATOM     19  C   UNL     1     165.471 171.612 174.645 -0.18 +0.01    -0.023 A 
ATOM     20  C   UNL     1     165.087 172.728 175.411 -0.17 -0.00    +0.006 A 
ATOM     21  C   UNL     1     165.705 173.011 176.627 -0.25 -0.00    +0.000 A 
ATOM     22  C   UNL     1     166.726 172.189 177.094 -0.30 -0.00    +0.000 A 
ATOM     23  C   UNL     1     167.129 171.087 176.344 -0.32 -0.00    +0.000 A 
ATOM     24  C   UNL     1     166.502 170.794 175.132 -0.23 -0.00    +0.006 A 
ENDBRANCH  18  19
BRANCH  18  25
ATOM     25  C   UNL     1     165.025 172.096 172.143 -0.20 +0.00    -0.023 A 
ATOM     26  C   UNL     1     165.777 173.280 172.187 -0.13 -0.00    +0.006 A 
ATOM     27  C   UNL     1     166.094 173.973 171.014 -0.22 +0.00    +0.000 A 
ATOM     28  C   UNL     1     165.694 173.479 169.776 -0.34 +0.00    +0.000 A 
ATOM     29  C   UNL     1     164.959 172.299 169.707 -0.36 -0.00    +0.000 A 
ATOM     30  C   UNL     1     164.615 171.624 170.879 -0.26 -0.00    +0.006 A 
ENDBRANCH  18  25
ENDBRANCH   2  18
TORSDOF 7
TER
ENDMDL
