MODEL        1
USER    Run = 1
USER
USER    Estimated Free Energy of Binding    =  -4.07 kcal/mol  [=(1)+(2)+(3)-(4)]
USER
USER    (1) Final Intermolecular Energy     =  -5.85 kcal/mol
USER        vdW + Hbond + desolv Energy     =  -5.74 kcal/mol
USER        Electrostatic Energy            =  -0.11 kcal/mol
USER        Moving Ligand-Fixed Receptor    =  -5.85 kcal/mol
USER        Moving Ligand-Moving Receptor   =  +0.00 kcal/mol
USER    (2) Final Total Internal Energy     =  -2.25 kcal/mol
USER    (3) Torsional Free Energy           =  +1.79 kcal/mol
USER    (4) Unbound System's Energy         =  -2.25 kcal/mol
USER
USER
REMARK  Name = Z15685459
REMARK  6 active torsions:
REMARK  status: ('A' for Active; 'I' for Inactive)
REMARK    1  A    between atoms: C_2  and  C_4
REMARK    2  A    between atoms: C_9  and  O_10
REMARK    3  A    between atoms: O_10  and  C_11
REMARK    4  A    between atoms: C_11  and  C_12
REMARK    5  A    between atoms: N_14  and  C_15
REMARK    6  A    between atoms: C_15  and  C_16
REMARK                            x       y       z     vdW  Elec       q    Type
REMARK                         _______ _______ _______ _____ _____    ______ ____
USER                              x       y       z     vdW  Elec       q    Type
USER                           _______ _______ _______ _____ _____    ______ ____
ROOT
ATOM      1  C   UNL     1     164.372 171.980 175.001 +0.05 -0.07    +0.324 C 
ENDROOT
BRANCH   1   2
ATOM      2  C   UNL     1     162.872 172.095 175.287 -0.10 +0.01    +0.251 C 
ATOM      3  N   UNL     1     162.128 171.000 174.892 -0.13 +0.01    -0.308 N 
ATOM      4  H   UNL     1     162.506 170.379 174.188 +0.09 -0.02    +0.149 HD
ATOM      5  O   UNL     1     162.377 173.052 175.876 -0.31 -0.12    -0.272 OA
BRANCH   3   6
ATOM      6  C   UNL     1     160.727 170.893 175.229 -0.38 +0.01    +0.139 C 
BRANCH   6   7
ATOM      7  C   UNL     1     160.437 169.605 175.958 -0.44 +0.00    -0.029 A 
ATOM      8  C   UNL     1     159.130 169.282 176.351 -0.34 -0.01    +0.025 A 
ATOM      9  C   UNL     1     158.879 168.101 177.053 -0.42 -0.01    +0.041 A 
ATOM     10 CL   UNL     1     157.271 167.719 177.532 -0.67 +0.05    -0.084 Cl
ATOM     11  C   UNL     1     159.919 167.232 177.376 -0.22 -0.00    +0.020 A 
ATOM     12  C   UNL     1     161.223 167.546 176.997 -0.44 -0.00    +0.002 A 
ATOM     13  C   UNL     1     161.480 168.727 176.297 -0.38 -0.00    +0.005 A 
ENDBRANCH   6   7
ENDBRANCH   3   6
ENDBRANCH   1   2
BRANCH   1  14
ATOM     14  O   UNL     1     164.705 170.865 174.201 -0.02 +0.16    -0.482 OA
BRANCH  14  16
ATOM     15  C   UNL     1     163.792 170.152 171.944 -0.12 -0.02    +0.078 A 
ATOM     16  C   UNL     1     164.548 170.934 172.837 -0.18 -0.04    +0.133 A 
ATOM     17  C   UNL     1     165.249 172.037 172.312 -0.19 -0.01    +0.046 A 
ATOM     18  C   UNL     1     165.197 172.380 170.959 -0.25 +0.00    +0.004 A 
ATOM     19  C   UNL     1     164.437 171.615 170.086 -0.26 -0.00    +0.001 A 
ATOM     20  C   UNL     1     163.752 170.503 170.573 +0.10 -0.01    +0.017 A 
BRANCH  15  24
ATOM     21  N   UNL     1     162.355 168.316 171.244 -0.16 +0.17    -0.325 N 
ATOM     22  H   UNL     1     162.370 168.647 170.290 -0.11 -0.10    +0.145 HD
ATOM     23  H   UNL     1     161.872 167.451 171.452 -0.35 -0.10    +0.145 HD
ATOM     24  C   UNL     1     163.018 168.925 172.277 -0.24 -0.06    +0.245 C 
ATOM     25  O   UNL     1     162.987 168.430 173.394 -0.26 +0.05    -0.270 OA
ENDBRANCH  15  24
ENDBRANCH  14  16
ENDBRANCH   1  14
TORSDOF 6
TER
ENDMDL
