MODEL        1
USER    Run = 1
USER
USER    Estimated Free Energy of Binding    =  -3.89 kcal/mol  [=(1)+(2)+(3)-(4)]
USER
USER    (1) Final Intermolecular Energy     =  -5.08 kcal/mol
USER        vdW + Hbond + desolv Energy     =  -5.09 kcal/mol
USER        Electrostatic Energy            =  +0.01 kcal/mol
USER        Moving Ligand-Fixed Receptor    =  -5.08 kcal/mol
USER        Moving Ligand-Moving Receptor   =  +0.00 kcal/mol
USER    (2) Final Total Internal Energy     =  -2.00 kcal/mol
USER    (3) Torsional Free Energy           =  +1.19 kcal/mol
USER    (4) Unbound System's Energy         =  -2.00 kcal/mol
USER
USER
REMARK  Name = Z15683405
REMARK  4 active torsions:
REMARK  status: ('A' for Active; 'I' for Inactive)
REMARK    1  A    between atoms: C_10  and  O_11
REMARK    2  A    between atoms: O_11  and  C_12
REMARK    3  A    between atoms: C_12  and  C_13
REMARK    4  A    between atoms: N_15  and  C_16
REMARK                            x       y       z     vdW  Elec       q    Type
REMARK                         _______ _______ _______ _____ _____    ______ ____
USER                              x       y       z     vdW  Elec       q    Type
USER                           _______ _______ _______ _____ _____    ______ ____
ROOT
ATOM      1 CL   UNL     1     165.778 172.732 168.476 -0.49 -0.02    -0.084 Cl
ATOM      2  C   UNL     1     165.572 173.104 170.140 -0.27 +0.01    +0.043 A 
ATOM      3  C   UNL     1     165.030 172.156 170.995 -0.23 -0.00    +0.035 A 
ATOM      4  C   UNL     1     164.865 172.444 172.368 -0.13 -0.01    +0.065 A 
ATOM      5  C   UNL     1     165.226 173.687 172.899 -0.06 -0.02    +0.096 A 
ATOM      6  N   UNL     1     165.054 173.951 174.212 -0.03 +0.03    -0.234 NA
ATOM      7  C   UNL     1     164.533 172.989 174.989 -0.03 -0.03    +0.225 A 
ATOM      8  N   UNL     1     164.168 171.768 174.589 -0.11 +0.04    -0.201 NA
ATOM      9  C   UNL     1     165.772 174.619 172.000 -0.10 -0.01    +0.068 A 
ATOM     10 CL   UNL     1     166.267 176.185 172.553 -0.14 +0.02    -0.081 Cl
ATOM     11  C   UNL     1     164.342 171.530 173.282 -0.01 -0.05    +0.226 A 
ATOM     12  C   UNL     1     165.949 174.340 170.637 -0.22 +0.00    +0.042 A 
ENDROOT
BRANCH  11  13
ATOM     13  O   UNL     1     164.022 170.289 172.772 -0.08 +0.12    -0.466 OA
BRANCH  13  14
ATOM     14  C   UNL     1     164.724 169.194 173.351 -0.11 -0.10    +0.326 C 
BRANCH  14  15
ATOM     15  C   UNL     1     163.744 168.447 174.260 -0.28 -0.06    +0.255 C 
ATOM     16  N   UNL     1     162.732 169.262 174.752 -0.15 +0.04    -0.283 N 
ATOM     17  H   UNL     1     162.779 170.233 174.464 +0.10 -0.02    +0.155 HD
ATOM     18  O   UNL     1     163.874 167.242 174.460 -0.35 +0.07    -0.272 OA
BRANCH  16  19
ATOM     19  C   UNL     1     161.683 168.911 175.626 -0.32 -0.00    +0.034 A 
ATOM     20  C   UNL     1     160.504 169.668 175.571 -0.41 -0.00    +0.023 A 
ATOM     21  C   UNL     1     159.422 169.363 176.404 -0.40 -0.00    +0.002 A 
ATOM     22  C   UNL     1     159.510 168.302 177.301 -0.46 -0.00    +0.000 A 
ATOM     23  C   UNL     1     160.681 167.553 177.369 -0.43 -0.00    +0.002 A 
ATOM     24  C   UNL     1     161.762 167.857 176.536 -0.38 -0.00    +0.023 A 
ENDBRANCH  16  19
ENDBRANCH  14  15
ENDBRANCH  13  14
ENDBRANCH  11  13
TORSDOF 4
TER
ENDMDL
