MODEL        1
USER    Run = 1
USER
USER    Estimated Free Energy of Binding    =  -5.00 kcal/mol  [=(1)+(2)+(3)-(4)]
USER
USER    (1) Final Intermolecular Energy     =  -6.79 kcal/mol
USER        vdW + Hbond + desolv Energy     =  -6.59 kcal/mol
USER        Electrostatic Energy            =  -0.20 kcal/mol
USER        Moving Ligand-Fixed Receptor    =  -6.79 kcal/mol
USER        Moving Ligand-Moving Receptor   =  +0.00 kcal/mol
USER    (2) Final Total Internal Energy     =  -2.84 kcal/mol
USER    (3) Torsional Free Energy           =  +1.79 kcal/mol
USER    (4) Unbound System's Energy         =  -2.84 kcal/mol
USER
USER
REMARK  Name = Z15788593
REMARK  9 active torsions:
REMARK  status: ('A' for Active; 'I' for Inactive)
REMARK    1  A    between atoms: C_1  and  C_2
REMARK    2  A    between atoms: C_2  and  C_3
REMARK    3  A    between atoms: C_2  and  C_4
REMARK    4  A    between atoms: C_2  and  C_5
REMARK    5  A    between atoms: C_10  and  N_11
REMARK    6  A    between atoms: C_12  and  C_14
REMARK    7  A    between atoms: C_14  and  N_15
REMARK    8  A    between atoms: C_19  and  C_20
REMARK    9  A    between atoms: C_20  and  C_21
REMARK                            x       y       z     vdW  Elec       q    Type
REMARK                         _______ _______ _______ _____ _____    ______ ____
USER                              x       y       z     vdW  Elec       q    Type
USER                           _______ _______ _______ _____ _____    ______ ____
ROOT
ATOM      1  C   UNL     1     164.743 174.641 176.300 -0.10 +0.04    +0.214 C 
ENDROOT
BRANCH   1   2
ATOM      2  N   UNL     1     164.787 175.350 175.037 -0.06 -0.01    -0.216 N 
ATOM      3  C   UNL     1     165.119 174.770 173.847 -0.01 -0.04    +0.244 C 
ATOM      4  O   UNL     1     165.628 173.667 173.693 -0.03 +0.06    -0.273 OA
ATOM      5  C   UNL     1     164.697 175.696 172.698 -0.08 -0.05    +0.165 C 
ATOM      6  N   UNL     1     164.135 176.780 173.472 -0.02 +0.15    -0.287 N 
ATOM      7  H   UNL     1     163.739 177.628 173.083 -0.53 -0.18    +0.151 HD
ATOM      8  C   UNL     1     164.202 176.558 174.824 +0.00 +0.04    +0.310 C 
ATOM      9  O   UNL     1     163.786 177.321 175.683 -0.58 -0.17    -0.252 OA
BRANCH   5  10
ATOM     10  C   UNL     1     163.701 174.970 171.785 +0.02 -0.02    +0.067 C 
BRANCH  10  11
ATOM     11  C   UNL     1     164.382 174.252 170.644 -0.21 +0.01    -0.045 A 
ATOM     12  C   UNL     1     165.664 174.645 170.232 -0.26 +0.00    +0.003 A 
ATOM     13  C   UNL     1     166.351 173.911 169.265 -0.19 +0.00    +0.000 A 
ATOM     14  C   UNL     1     165.759 172.789 168.689 -0.36 +0.00    +0.000 A 
ATOM     15  C   UNL     1     164.467 172.419 169.057 -0.39 -0.00    +0.000 A 
ATOM     16  C   UNL     1     163.779 173.148 170.029 -0.28 -0.00    +0.003 A 
ENDBRANCH  10  11
ENDBRANCH   5  10
ENDBRANCH   1   2
BRANCH   1  19
ATOM     17  N   UNL     1     163.526 172.747 175.246 -0.09 -0.01    -0.284 N 
ATOM     18  H   UNL     1     164.142 172.922 174.463 +0.09 -0.02    +0.155 HD
ATOM     19  C   UNL     1     163.845 173.410 176.425 -0.14 +0.04    +0.235 C 
ATOM     20  O   UNL     1     163.618 172.950 177.547 -0.28 -0.02    -0.274 OA
BRANCH  17  22
ATOM     21  C   UNL     1     163.076 170.383 174.539 -0.20 +0.00    -0.021 A 
ATOM     22  C   UNL     1     162.713 171.574 175.227 -0.19 -0.00    +0.037 A 
ATOM     23  C   UNL     1     161.478 171.631 175.908 -0.34 +0.00    +0.023 A 
ATOM     24  C   UNL     1     160.604 170.547 175.952 -0.35 +0.00    +0.002 A 
ATOM     25  C   UNL     1     160.953 169.374 175.312 -0.29 -0.00    +0.000 A 
ATOM     26  C   UNL     1     162.162 169.298 174.620 -0.34 -0.00    +0.006 A 
BRANCH  21  28
ATOM     27  C   UNL     1     165.646 170.807 174.514 -0.31 -0.01    +0.015 C 
ATOM     28  C   UNL     1     164.418 170.168 173.795 -0.36 +0.00    -0.011 C 
ATOM     29  C   UNL     1     164.741 168.663 173.697 -0.40 -0.00    +0.015 C 
ATOM     30  C   UNL     1     164.384 170.824 172.397 -0.31 -0.00    +0.015 C 
ENDBRANCH  21  28
ENDBRANCH  17  22
ENDBRANCH   1  19
TORSDOF 6
TER
ENDMDL
