MODEL        1
USER    Run = 1
USER
USER    Estimated Free Energy of Binding    =  -3.88 kcal/mol  [=(1)+(2)+(3)-(4)]
USER
USER    (1) Final Intermolecular Energy     =  -6.27 kcal/mol
USER        vdW + Hbond + desolv Energy     =  -6.15 kcal/mol
USER        Electrostatic Energy            =  -0.11 kcal/mol
USER        Moving Ligand-Fixed Receptor    =  -6.27 kcal/mol
USER        Moving Ligand-Moving Receptor   =  +0.00 kcal/mol
USER    (2) Final Total Internal Energy     =  -1.88 kcal/mol
USER    (3) Torsional Free Energy           =  +2.39 kcal/mol
USER    (4) Unbound System's Energy         =  -1.88 kcal/mol
USER
USER
REMARK  Name = Z15730652
REMARK  8 active torsions:
REMARK  status: ('A' for Active; 'I' for Inactive)
REMARK    1  A    between atoms: N_6  and  C_7
REMARK    2  A    between atoms: C_7  and  C_8
REMARK    3  A    between atoms: C_14  and  S_15
REMARK    4  A    between atoms: S_15  and  C_16
REMARK    5  A    between atoms: C_16  and  C_17
REMARK    6  A    between atoms: N_19  and  C_20
REMARK    7  A    between atoms: C_20  and  C_21
REMARK    8  A    between atoms: C_21  and  C_22
REMARK                            x       y       z     vdW  Elec       q    Type
REMARK                         _______ _______ _______ _____ _____    ______ ____
USER                              x       y       z     vdW  Elec       q    Type
USER                           _______ _______ _______ _____ _____    ______ ____
ROOT
ATOM      1 CL   UNL     1     160.266 168.929 176.874 -0.71 +0.01    -0.084 Cl
ATOM      2  C   UNL     1     161.346 169.883 175.927 -0.36 -0.00    +0.043 A 
ATOM      3  C   UNL     1     161.493 171.243 176.215 -0.30 +0.00    +0.050 A 
ATOM      4  C   UNL     1     162.419 171.986 175.468 -0.20 +0.01    +0.091 A 
ATOM      5  C   UNL     1     163.175 171.351 174.487 -0.07 -0.01    +0.070 A 
ATOM      6  N   UNL     1     164.062 172.319 174.059 -0.02 +0.05    -0.314 N 
ATOM      7  C   UNL     1     163.721 173.494 174.692 -0.06 +0.01    +0.171 A 
ATOM      8  C   UNL     1     162.998 170.001 174.147 -0.29 -0.01    +0.029 A 
ATOM      9  N   UNL     1     162.746 173.320 175.553 -0.25 -0.10    -0.222 NA
ATOM     10  C   UNL     1     162.067 169.275 174.898 -0.33 -0.00    +0.022 A 
ENDROOT
BRANCH   7  11
ATOM     11  S   UNL     1     164.523 175.002 174.383 -0.21 +0.00    -0.078 S 
BRANCH  11  12
ATOM     12  C   UNL     1     164.727 175.664 176.066 -0.08 +0.05    +0.172 C 
BRANCH  12  13
ATOM     13  C   UNL     1     164.884 174.517 177.058 -0.09 +0.06    +0.223 C 
ATOM     14  N   UNL     1     165.886 173.616 176.752 -0.10 +0.05    -0.314 N 
ATOM     15  H   UNL     1     166.301 173.668 175.826 +0.08 -0.04    +0.149 HD
ATOM     16  O   UNL     1     164.202 174.416 178.075 -0.50 -0.11    -0.275 OA
BRANCH  14  17
ATOM     17  C   UNL     1     166.165 172.450 177.578 -0.16 -0.05    +0.119 C 
BRANCH  17  18
ATOM     18  C   UNL     1     167.280 171.559 177.032 -0.25 -0.10    +0.137 C 
BRANCH  18  19
ATOM     19  C   UNL     1     166.773 170.680 175.976 -0.20 -0.05    +0.064 C 
ATOM     20  N   UNL     1     166.377 169.969 175.148 -0.21 +0.15    -0.197 NA
ENDBRANCH  18  19
ENDBRANCH  17  18
ENDBRANCH  14  17
ENDBRANCH  12  13
ENDBRANCH  11  12
ENDBRANCH   7  11
BRANCH   6  21
ATOM     21  C   UNL     1     165.285 172.037 173.316 -0.15 -0.05    +0.159 C 
BRANCH  21  22
ATOM     22  C   UNL     1     165.260 172.333 171.836 -0.20 +0.00    -0.028 A 
ATOM     23  C   UNL     1     165.977 173.461 171.391 -0.19 +0.00    +0.005 A 
ATOM     24  C   UNL     1     165.928 173.866 170.056 -0.30 +0.00    +0.000 A 
ATOM     25  C   UNL     1     165.169 173.145 169.143 -0.39 -0.00    +0.000 A 
ATOM     26  C   UNL     1     164.492 171.999 169.556 -0.35 -0.00    +0.000 A 
ATOM     27  C   UNL     1     164.544 171.587 170.892 -0.26 -0.00    +0.005 A 
ENDBRANCH  21  22
ENDBRANCH   6  21
TORSDOF 8
TER
ENDMDL
