MODEL        1
USER    Run = 1
USER
USER    Estimated Free Energy of Binding    =  -3.62 kcal/mol  [=(1)+(2)+(3)-(4)]
USER
USER    (1) Final Intermolecular Energy     =  -6.01 kcal/mol
USER        vdW + Hbond + desolv Energy     =  -5.91 kcal/mol
USER        Electrostatic Energy            =  -0.09 kcal/mol
USER        Moving Ligand-Fixed Receptor    =  -6.01 kcal/mol
USER        Moving Ligand-Moving Receptor   =  +0.00 kcal/mol
USER    (2) Final Total Internal Energy     =  -2.68 kcal/mol
USER    (3) Torsional Free Energy           =  +2.39 kcal/mol
USER    (4) Unbound System's Energy         =  -2.68 kcal/mol
USER
USER
REMARK  Name = Z15752222
REMARK  10 active torsions:
REMARK  status: ('A' for Active; 'I' for Inactive)
REMARK    1  A    between atoms: C_1  and  C_2
REMARK    2  A    between atoms: C_2  and  N_3
REMARK    3  A    between atoms: N_3  and  C_19
REMARK    4  A    between atoms: C_4  and  C_6
REMARK    5  A    between atoms: C_6  and  S_7
REMARK    6  A    between atoms: S_7  and  C_8
REMARK    7  A    between atoms: C_10  and  C_11
REMARK    8  A    between atoms: C_20  and  N_21
REMARK    9  A    between atoms: N_22  and  C_23
REMARK   10  A    between atoms: C_23  and  C_24
REMARK                            x       y       z     vdW  Elec       q    Type
REMARK                         _______ _______ _______ _____ _____    ______ ____
USER                              x       y       z     vdW  Elec       q    Type
USER                           _______ _______ _______ _____ _____    ______ ____
ROOT
ATOM      1  C   UNL     1     165.283 173.463 171.875 -0.13 -0.02    +0.140 C 
ATOM      2  C   UNL     1     164.407 174.358 172.713 -0.03 -0.06    +0.277 C 
ATOM      3  O   UNL     1     163.569 175.109 172.223 -0.18 +0.11    -0.266 OA
ATOM      4  N   UNL     1     164.622 174.316 174.050 -0.03 +0.03    -0.273 N 
ATOM      5  H   UNL     1     164.117 174.971 174.628 +0.08 +0.02    +0.173 HD
ATOM      6  C   UNL     1     164.994 173.176 174.680 +0.02 -0.06    +0.331 C 
ATOM      7  O   UNL     1     164.949 173.129 175.908 -0.16 +0.03    -0.246 OA
ATOM      8  N   UNL     1     165.355 172.118 173.859 -0.06 +0.09    -0.276 N 
ATOM      9  C   UNL     1     165.625 172.283 172.488 -0.17 -0.02    +0.128 C 
ENDROOT
BRANCH   1  10
ATOM     10  N   UNL     1     165.567 173.876 170.538 -0.14 -0.02    -0.264 N 
ATOM     11  C   UNL     1     166.454 174.941 170.217 -0.16 +0.03    +0.230 C 
ATOM     12  O   UNL     1     166.751 175.190 169.041 -0.26 -0.05    -0.274 OA
BRANCH  10  14
ATOM     13  C   UNL     1     163.639 172.680 169.243 -0.46 -0.01    +0.025 C 
ATOM     14  C   UNL     1     165.114 173.023 169.425 -0.37 -0.00    +0.110 C 
ENDBRANCH  10  14
BRANCH  11  15
ATOM     15  C   UNL     1     167.076 175.792 171.336 -0.10 -0.01    +0.172 C 
BRANCH  15  16
ATOM     16  S   UNL     1     166.004 177.147 171.911 -0.15 +0.02    -0.096 S 
BRANCH  16  17
ATOM     17  C   UNL     1     166.408 177.139 173.653 +0.00 -0.02    +0.109 A 
ATOM     18  C   UNL     1     167.701 177.437 174.096 -0.03 -0.01    +0.032 A 
ATOM     19  C   UNL     1     167.872 177.350 175.481 -0.05 -0.01    +0.076 A 
ATOM     20  C   UNL     1     169.137 177.594 176.004 -0.09 -0.01    +0.028 A 
ATOM     21  C   UNL     1     170.229 177.917 175.192 -0.08 -0.00    +0.002 A 
ATOM     22  C   UNL     1     170.062 178.017 173.820 -0.06 -0.00    +0.001 A 
ATOM     23  N   UNL     1     166.880 177.024 176.318 -0.37 -0.08    -0.232 NA
ATOM     24  C   UNL     1     165.683 176.756 175.789 -0.01 +0.02    +0.128 A 
ATOM     25  C   UNL     1     164.592 176.324 176.720 -0.08 +0.04    +0.088 C 
ATOM     26  C   UNL     1     168.806 177.782 173.272 -0.04 -0.00    +0.012 A 
ATOM     27  N   UNL     1     165.393 176.814 174.486 -0.00 +0.02    -0.226 NA
ENDBRANCH  16  17
ENDBRANCH  15  16
ENDBRANCH  11  15
ENDBRANCH   1  10
BRANCH   9  28
ATOM     28  N   UNL     1     166.328 171.244 171.896 +0.06 +0.02    -0.343 N 
ATOM     29  H   UNL     1     167.286 171.196 172.238 -0.49 -0.03    +0.144 HD
ATOM     30  H   UNL     1     165.917 170.327 171.917 -0.13 -0.04    +0.144 HD
ENDBRANCH   9  28
BRANCH   8  31
ATOM     31  C   UNL     1     165.639 170.843 174.540 -0.19 -0.08    +0.163 C 
BRANCH  31  32
ATOM     32  C   UNL     1     164.777 169.671 174.092 -0.32 +0.01    -0.028 A 
ATOM     33  C   UNL     1     165.052 168.349 174.477 -0.36 -0.00    +0.005 A 
ATOM     34  C   UNL     1     164.356 167.279 173.905 -0.35 -0.00    +0.000 A 
ATOM     35  C   UNL     1     163.376 167.513 172.943 -0.31 -0.00    +0.000 A 
ATOM     36  C   UNL     1     163.071 168.818 172.572 -0.39 -0.00    +0.000 A 
ATOM     37  C   UNL     1     163.766 169.889 173.142 -0.33 -0.00    +0.005 A 
ENDBRANCH  31  32
ENDBRANCH   8  31
TORSDOF 8
TER
ENDMDL
