MODEL        1
USER    Run = 1
USER
USER    Estimated Free Energy of Binding    =  -5.39 kcal/mol  [=(1)+(2)+(3)-(4)]
USER
USER    (1) Final Intermolecular Energy     =  -7.18 kcal/mol
USER        vdW + Hbond + desolv Energy     =  -6.74 kcal/mol
USER        Electrostatic Energy            =  -0.43 kcal/mol
USER        Moving Ligand-Fixed Receptor    =  -7.18 kcal/mol
USER        Moving Ligand-Moving Receptor   =  +0.00 kcal/mol
USER    (2) Final Total Internal Energy     =  -2.44 kcal/mol
USER    (3) Torsional Free Energy           =  +1.79 kcal/mol
USER    (4) Unbound System's Energy         =  -2.44 kcal/mol
USER
USER
REMARK  Name = Z15789019
REMARK  8 active torsions:
REMARK  status: ('A' for Active; 'I' for Inactive)
REMARK    1  A    between atoms: C_1  and  C_2
REMARK    2  A    between atoms: C_2  and  N_3
REMARK    3  A    between atoms: C_2  and  C_22
REMARK    4  A    between atoms: C_4  and  C_6
REMARK    5  A    between atoms: C_6  and  C_7
REMARK    6  A    between atoms: C_6  and  N_8
REMARK    7  A    between atoms: C_12  and  C_13
REMARK    8  A    between atoms: C_13  and  C_14
REMARK                            x       y       z     vdW  Elec       q    Type
REMARK                         _______ _______ _______ _____ _____    ______ ____
USER                              x       y       z     vdW  Elec       q    Type
USER                           _______ _______ _______ _____ _____    ______ ____
ROOT
ATOM      1  C   UNL     1     164.167 173.425 175.924 -0.15 +0.01    +0.168 C 
ATOM      2  C   UNL     1     165.373 172.511 176.149 -0.11 -0.01    +0.038 C 
ENDROOT
BRANCH   1   3
ATOM      3  N   UNL     1     164.420 174.361 174.840 -0.08 -0.01    -0.213 N 
ATOM      4  C   UNL     1     164.742 173.939 173.573 -0.03 -0.04    +0.244 C 
ATOM      5  O   UNL     1     165.127 172.820 173.261 -0.10 +0.06    -0.273 OA
ATOM      6  C   UNL     1     164.488 175.074 172.585 -0.11 -0.04    +0.165 C 
ATOM      7  N   UNL     1     163.933 176.053 173.487 -0.07 +0.12    -0.287 N 
ATOM      8  H   UNL     1     163.577 176.963 173.221 -0.46 -0.17    +0.151 HD
ATOM      9  C   UNL     1     163.868 175.604 174.781 -0.02 +0.07    +0.310 C 
ATOM     10  O   UNL     1     163.380 176.241 175.697 -0.47 -0.25    -0.252 OA
BRANCH   6  11
ATOM     11  C   UNL     1     163.534 174.607 171.480 +0.11 -0.02    +0.067 C 
BRANCH  11  12
ATOM     12  C   UNL     1     164.263 173.879 170.378 -0.24 +0.01    -0.045 A 
ATOM     13  C   UNL     1     165.498 174.359 169.917 -0.28 +0.00    +0.003 A 
ATOM     14  C   UNL     1     166.233 173.634 168.980 -0.16 +0.00    +0.000 A 
ATOM     15  C   UNL     1     165.733 172.433 168.481 -0.33 +0.00    +0.000 A 
ATOM     16  C   UNL     1     164.492 171.965 168.908 -0.31 -0.00    +0.000 A 
ATOM     17  C   UNL     1     163.757 172.683 169.852 -0.30 -0.00    +0.003 A 
ENDBRANCH  11  12
ENDBRANCH   6  11
ENDBRANCH   1   3
BRANCH   1  20
ATOM     18  N   UNL     1     162.997 171.400 175.075 -0.05 +0.03    -0.311 N 
ATOM     19  H   UNL     1     163.916 170.995 174.952 +0.11 -0.03    +0.149 HD
ATOM     20  C   UNL     1     162.887 172.578 175.791 -0.15 +0.04    +0.234 C 
ATOM     21  O   UNL     1     161.795 173.021 176.150 -0.18 -0.17    -0.274 OA
BRANCH  18  23
ATOM     22  C   UNL     1     161.062 170.352 176.155 -0.46 -0.00    +0.028 C 
ATOM     23  C   UNL     1     161.819 170.565 174.841 -0.36 -0.00    +0.073 C 
BRANCH  23  24
ATOM     24  C   UNL     1     162.177 169.208 174.187 -0.37 -0.00    +0.012 C 
ATOM     25  C   UNL     1     162.708 169.301 172.724 -0.31 +0.00    -0.006 C 
ATOM     26  C   UNL     1     163.392 167.940 172.550 -0.39 -0.00    +0.007 C 
ATOM     27  C   UNL     1     164.311 168.143 173.746 -0.48 +0.00    -0.010 C 
ATOM     28  C   UNL     1     164.999 169.481 173.419 -0.31 -0.00    +0.004 C 
ATOM     29  C   UNL     1     163.926 170.234 172.620 -0.33 -0.00    +0.004 C 
ATOM     30  C   UNL     1     163.295 168.382 174.876 -0.38 -0.00    +0.009 C 
ENDBRANCH  23  24
ENDBRANCH  18  23
ENDBRANCH   1  20
TORSDOF 6
TER
ENDMDL
