MODEL        1
USER    Run = 1
USER
USER    Estimated Free Energy of Binding    =  -5.33 kcal/mol  [=(1)+(2)+(3)-(4)]
USER
USER    (1) Final Intermolecular Energy     =  -7.12 kcal/mol
USER        vdW + Hbond + desolv Energy     =  -6.96 kcal/mol
USER        Electrostatic Energy            =  -0.16 kcal/mol
USER        Moving Ligand-Fixed Receptor    =  -7.12 kcal/mol
USER        Moving Ligand-Moving Receptor   =  +0.00 kcal/mol
USER    (2) Final Total Internal Energy     =  -0.87 kcal/mol
USER    (3) Torsional Free Energy           =  +1.79 kcal/mol
USER    (4) Unbound System's Energy         =  -0.87 kcal/mol
USER
USER
REMARK  Name = Z15730287
REMARK  8 active torsions:
REMARK  status: ('A' for Active; 'I' for Inactive)
REMARK    1  A    between atoms: C_1  and  C_2
REMARK    2  A    between atoms: C_6  and  C_7
REMARK    3  A    between atoms: C_9  and  C_11
REMARK    4  A    between atoms: C_11  and  O_12
REMARK    5  A    between atoms: O_12  and  C_13
REMARK    6  A    between atoms: C_13  and  C_15
REMARK    7  A    between atoms: C_18  and  C_21
REMARK    8  A    between atoms: C_24  and  O_25
REMARK                            x       y       z     vdW  Elec       q    Type
REMARK                         _______ _______ _______ _____ _____    ______ ____
USER                              x       y       z     vdW  Elec       q    Type
USER                           _______ _______ _______ _____ _____    ______ ____
ROOT
ATOM      1  C   UNL     1     154.741 165.965 178.623 -0.19 -0.18    +0.340 C 
ATOM      2  O   UNL     1     154.203 165.134 177.907 -0.19 +0.11    -0.245 OA
ENDROOT
BRANCH   1   3
ATOM      3  C   UNL     1     156.004 166.651 178.242 -0.39 -0.03    +0.059 A 
ATOM      4  C   UNL     1     157.081 165.865 177.819 -0.38 -0.01    +0.015 A 
ATOM      5  C   UNL     1     158.259 166.462 177.353 -0.29 -0.00    +0.009 A 
ATOM      6  C   UNL     1     158.391 167.859 177.261 -0.38 +0.01    -0.018 A 
ATOM      7  C   UNL     1     157.307 168.632 177.728 -0.44 -0.01    +0.009 A 
ATOM      8  C   UNL     1     156.132 168.041 178.220 -0.44 -0.01    +0.015 A 
BRANCH   6   9
ATOM      9  C   UNL     1     159.575 168.491 176.624 -0.41 +0.00    -0.018 A 
ATOM     10  C   UNL     1     160.837 167.863 176.647 -0.40 -0.00    +0.012 A 
ATOM     11  C   UNL     1     161.936 168.392 175.963 -0.29 -0.00    +0.046 A 
ATOM     12  C   UNL     1     161.790 169.560 175.232 -0.28 -0.01    +0.117 A 
ATOM     13  C   UNL     1     160.576 170.230 175.211 -0.43 +0.00    +0.046 A 
ATOM     14  C   UNL     1     159.483 169.703 175.913 -0.34 -0.00    +0.012 A 
BRANCH  12  15
ATOM     15  O   UNL     1     162.868 170.010 174.530 -0.04 +0.08    -0.507 OA
ATOM     16  H   UNL     1     163.673 169.638 174.926 +0.23 -0.07    +0.292 HD
ENDBRANCH  12  15
ENDBRANCH   6   9
ENDBRANCH   1   3
BRANCH   1  17
ATOM     17  O   UNL     1     154.282 166.404 179.818 -0.16 +0.29    -0.452 OA
BRANCH  17  18
ATOM     18  C   UNL     1     153.634 167.681 179.797 -0.15 -0.32    +0.328 C 
BRANCH  18  26
ATOM     19  C   UNL     1     150.255 164.937 181.954 -0.36 -0.01    +0.039 C 
ATOM     20  C   UNL     1     149.540 165.401 180.688 -0.24 -0.01    +0.133 C 
ATOM     21  O   UNL     1     149.767 164.494 179.590 -0.14 -0.05    -0.371 OA
ATOM     22  C   UNL     1     151.105 164.552 179.059 -0.26 -0.03    +0.133 C 
ATOM     23  C   UNL     1     151.160 163.606 177.867 -0.28 -0.01    +0.039 C 
ATOM     24  C   UNL     1     151.479 165.988 178.639 -0.13 -0.10    +0.139 C 
ATOM     25  N   UNL     1     151.260 166.914 179.756 -0.05 +0.21    -0.294 N 
ATOM     26  C   UNL     1     152.231 167.659 180.418 -0.14 -0.22    +0.254 C 
ATOM     27  O   UNL     1     151.975 168.293 181.442 -0.18 +0.26    -0.272 OA
ATOM     28  C   UNL     1     149.901 166.846 180.297 -0.16 -0.06    +0.139 C 
ENDBRANCH  18  26
ENDBRANCH  17  18
ENDBRANCH   1  17
TORSDOF 6
TER
ENDMDL
