MODEL        1
USER    Run = 1
USER
USER    Estimated Free Energy of Binding    =  -5.40 kcal/mol  [=(1)+(2)+(3)-(4)]
USER
USER    (1) Final Intermolecular Energy     =  -6.59 kcal/mol
USER        vdW + Hbond + desolv Energy     =  -6.58 kcal/mol
USER        Electrostatic Energy            =  -0.02 kcal/mol
USER        Moving Ligand-Fixed Receptor    =  -6.59 kcal/mol
USER        Moving Ligand-Moving Receptor   =  +0.00 kcal/mol
USER    (2) Final Total Internal Energy     =  -0.97 kcal/mol
USER    (3) Torsional Free Energy           =  +1.19 kcal/mol
USER    (4) Unbound System's Energy         =  -0.97 kcal/mol
USER
USER
REMARK  Name = Z15789243
REMARK  4 active torsions:
REMARK  status: ('A' for Active; 'I' for Inactive)
REMARK    1  A    between atoms: C_2  and  C_3
REMARK    2  A    between atoms: C_3  and  N_4
REMARK    3  A    between atoms: C_8  and  C_9
REMARK    4  A    between atoms: C_9  and  C_10
REMARK                            x       y       z     vdW  Elec       q    Type
REMARK                         _______ _______ _______ _____ _____    ______ ____
USER                              x       y       z     vdW  Elec       q    Type
USER                           _______ _______ _______ _____ _____    ______ ____
ROOT
ATOM      1  N   UNL     1     162.797 170.369 174.804 -0.15 +0.03    -0.216 N 
ATOM      2  C   UNL     1     161.993 169.284 174.992 -0.22 -0.02    +0.244 C 
ATOM      3  O   UNL     1     162.253 168.126 174.691 -0.21 +0.02    -0.273 OA
ATOM      4  C   UNL     1     160.695 169.751 175.647 -0.39 -0.01    +0.165 C 
ATOM      5  N   UNL     1     160.936 171.175 175.691 -0.23 -0.02    -0.287 N 
ATOM      6  H   UNL     1     160.290 171.871 176.046 +0.11 +0.04    +0.151 HD
ATOM      7  C   UNL     1     162.179 171.509 175.216 -0.10 +0.01    +0.310 C 
ATOM      8  O   UNL     1     162.622 172.644 175.170 -0.22 -0.04    -0.252 OA
ENDROOT
BRANCH   1   9
ATOM      9  C   UNL     1     164.155 170.331 174.318 -0.08 -0.06    +0.214 C 
BRANCH   9  11
ATOM     10  O   UNL     1     163.771 169.853 171.993 -0.25 +0.07    -0.274 OA
ATOM     11  C   UNL     1     164.136 170.687 172.824 -0.14 -0.06    +0.238 C 
ATOM     12  N   UNL     1     164.561 171.971 172.508 -0.06 +0.06    -0.270 N 
ATOM     13  C   UNL     1     164.919 172.412 171.219 -0.21 -0.00    +0.040 A 
ATOM     14  C   UNL     1     165.494 173.683 171.290 -0.19 +0.00    -0.025 A 
ATOM     15  C   UNL     1     166.036 174.295 170.170 -0.28 +0.00    +0.005 A 
ATOM     16  C   UNL     1     165.984 173.614 168.954 -0.34 +0.00    +0.000 A 
ATOM     17  C   UNL     1     165.379 172.351 168.873 -0.39 +0.00    +0.002 A 
ATOM     18  C   UNL     1     165.469 174.221 172.682 -0.11 -0.01    +0.056 C 
ATOM     19  C   UNL     1     164.839 171.742 170.010 -0.22 -0.00    +0.024 A 
ATOM     20  C   UNL     1     164.910 173.033 173.469 -0.11 -0.02    +0.118 C 
ENDBRANCH   9  11
ENDBRANCH   1   9
BRANCH   4  21
ATOM     21  C   UNL     1     160.549 169.101 177.020 -0.50 -0.01    +0.067 C 
BRANCH  21  22
ATOM     22  C   UNL     1     159.265 168.323 177.159 -0.43 +0.01    -0.045 A 
ATOM     23  C   UNL     1     159.282 166.922 177.104 -0.14 -0.00    +0.003 A 
ATOM     24  C   UNL     1     158.099 166.196 177.246 -0.33 -0.00    +0.000 A 
ATOM     25  C   UNL     1     156.892 166.863 177.442 -0.47 -0.00    +0.000 A 
ATOM     26  C   UNL     1     156.865 168.255 177.502 -0.47 -0.00    +0.000 A 
ATOM     27  C   UNL     1     158.047 168.984 177.365 -0.42 -0.00    +0.003 A 
ENDBRANCH  21  22
ENDBRANCH   4  21
TORSDOF 4
TER
ENDMDL
