MODEL        1
USER    Run = 1
USER
USER    Estimated Free Energy of Binding    =  -6.25 kcal/mol  [=(1)+(2)+(3)-(4)]
USER
USER    (1) Final Intermolecular Energy     =  -7.44 kcal/mol
USER        vdW + Hbond + desolv Energy     =  -7.40 kcal/mol
USER        Electrostatic Energy            =  -0.04 kcal/mol
USER        Moving Ligand-Fixed Receptor    =  -7.44 kcal/mol
USER        Moving Ligand-Moving Receptor   =  +0.00 kcal/mol
USER    (2) Final Total Internal Energy     =  -0.54 kcal/mol
USER    (3) Torsional Free Energy           =  +1.19 kcal/mol
USER    (4) Unbound System's Energy         =  -0.54 kcal/mol
USER
USER
REMARK  Name = Z15752385
REMARK  6 active torsions:
REMARK  status: ('A' for Active; 'I' for Inactive)
REMARK    1  A    between atoms: C_1  and  C_2
REMARK    2  A    between atoms: C_2  and  S_3
REMARK    3  A    between atoms: C_2  and  C_15
REMARK    4  A    between atoms: S_3  and  C_4
REMARK    5  A    between atoms: C_6  and  C_7
REMARK    6  A    between atoms: N_17  and  C_18
REMARK                            x       y       z     vdW  Elec       q    Type
REMARK                         _______ _______ _______ _____ _____    ______ ____
USER                              x       y       z     vdW  Elec       q    Type
USER                           _______ _______ _______ _____ _____    ______ ____
ROOT
ATOM      1  C   UNL     1     161.716 167.904 176.367 -0.45 -0.00    +0.029 C 
ATOM      2  C   UNL     1     160.535 168.758 176.836 -0.44 -0.02    +0.136 C 
ENDROOT
BRANCH   2   3
ATOM      3  C   UNL     1     159.353 167.832 177.161 -0.27 -0.06    +0.231 C 
ATOM      4  N   UNL     1     158.087 168.387 177.129 -0.29 +0.14    -0.270 N 
ATOM      5  H   UNL     1     157.924 169.098 176.427 -0.06 -0.11    +0.156 HD
ATOM      6  O   UNL     1     159.559 166.661 177.490 -0.19 +0.06    -0.274 OA
BRANCH   4   7
ATOM      7  C   UNL     1     156.956 167.645 177.483 -0.37 -0.07    +0.125 A 
ATOM      8  N   UNL     1     156.909 166.374 177.036 -0.29 +0.12    -0.239 NA
ATOM      9  C   UNL     1     155.892 165.606 177.512 -0.24 -0.06    +0.133 A 
ATOM     10  C   UNL     1     154.889 166.071 178.350 -0.31 -0.03    +0.059 A 
ATOM     11 CL   UNL     1     153.668 165.022 178.946 -0.44 +0.04    -0.082 Cl
ATOM     12  C   UNL     1     154.903 167.409 178.711 -0.41 -0.02    +0.025 A 
ATOM     13  C   UNL     1     155.954 168.207 178.272 -0.37 -0.03    +0.045 A 
ENDBRANCH   4   7
ENDBRANCH   2   3
BRANCH   2  14
ATOM     14  S   UNL     1     160.108 170.022 175.581 -0.61 +0.00    -0.093 S 
BRANCH  14  15
ATOM     15  C   UNL     1     161.683 170.877 175.363 -0.29 -0.00    +0.109 A 
ATOM     16  C   UNL     1     162.597 170.438 174.395 -0.24 -0.00    +0.032 A 
ATOM     17  C   UNL     1     163.769 171.209 174.320 -0.14 -0.02    +0.076 A 
ATOM     18  C   UNL     1     164.731 170.859 173.379 -0.26 -0.01    +0.028 A 
ATOM     19  C   UNL     1     164.573 169.764 172.521 -0.29 -0.00    +0.002 A 
ATOM     20  C   UNL     1     163.423 168.996 172.594 -0.38 -0.00    +0.001 A 
ATOM     21  N   UNL     1     164.004 172.259 175.108 -0.09 +0.03    -0.232 NA
ATOM     22  C   UNL     1     163.068 172.585 176.007 -0.13 +0.02    +0.128 A 
ATOM     23  C   UNL     1     163.376 173.744 176.905 -0.27 +0.03    +0.088 C 
ATOM     24  C   UNL     1     162.441 169.328 173.521 -0.32 -0.00    +0.012 A 
ATOM     25  N   UNL     1     161.897 171.945 176.162 -0.24 -0.04    -0.225 NA
ENDBRANCH  14  15
ENDBRANCH   2  14
TORSDOF 4
TER
ENDMDL
