MODEL        1
USER    Run = 1
USER
USER    Estimated Free Energy of Binding    =  -4.80 kcal/mol  [=(1)+(2)+(3)-(4)]
USER
USER    (1) Final Intermolecular Energy     =  -5.99 kcal/mol
USER        vdW + Hbond + desolv Energy     =  -6.00 kcal/mol
USER        Electrostatic Energy            =  +0.00 kcal/mol
USER        Moving Ligand-Fixed Receptor    =  -5.99 kcal/mol
USER        Moving Ligand-Moving Receptor   =  +0.00 kcal/mol
USER    (2) Final Total Internal Energy     =  -0.92 kcal/mol
USER    (3) Torsional Free Energy           =  +1.19 kcal/mol
USER    (4) Unbound System's Energy         =  -0.92 kcal/mol
USER
USER
REMARK  Name = Z15892075
REMARK  6 active torsions:
REMARK  status: ('A' for Active; 'I' for Inactive)
REMARK    1  A    between atoms: C_1  and  C_2
REMARK    2  A    between atoms: C_2  and  C_3
REMARK    3  A    between atoms: N_11  and  C_12
REMARK    4  A    between atoms: C_12  and  C_13
REMARK    5  A    between atoms: N_15  and  C_16
REMARK    6  A    between atoms: C_19  and  C_20
REMARK                            x       y       z     vdW  Elec       q    Type
REMARK                         _______ _______ _______ _____ _____    ______ ____
USER                              x       y       z     vdW  Elec       q    Type
USER                           _______ _______ _______ _____ _____    ______ ____
ROOT
ATOM      1  C   UNL     1     163.261 168.990 172.239 -0.26 -0.06    +0.219 C 
ENDROOT
BRANCH   1   3
ATOM      2  C   UNL     1     163.380 167.244 174.063 -0.28 -0.02    +0.111 A 
ATOM      3  N   UNL     1     162.873 168.405 173.509 -0.14 +0.05    -0.319 N 
ATOM      4  C   UNL     1     162.065 169.011 174.451 -0.19 -0.01    +0.069 A 
ATOM      5  C   UNL     1     162.173 168.188 175.571 -0.27 -0.01    +0.089 A 
ATOM      6  C   UNL     1     161.507 168.531 176.755 -0.31 -0.00    +0.030 A 
ATOM      7  C   UNL     1     160.726 169.689 176.780 -0.43 -0.00    +0.002 A 
ATOM      8  C   UNL     1     160.612 170.493 175.644 -0.44 +0.00    +0.002 A 
ATOM      9  C   UNL     1     161.289 170.176 174.458 -0.32 -0.00    +0.028 A 
ATOM     10  N   UNL     1     162.977 167.111 175.310 -0.26 +0.04    -0.232 NA
BRANCH   2  12
ATOM     11  C   UNL     1     163.507 165.477 172.299 -0.36 -0.00    +0.012 C 
ATOM     12  C   UNL     1     164.262 166.269 173.353 -0.28 -0.02    +0.071 C 
ENDBRANCH   2  12
ENDBRANCH   1   3
BRANCH   1  13
ATOM     13  C   UNL     1     164.078 170.257 172.362 -0.17 -0.06    +0.237 C 
ATOM     14  N   UNL     1     164.384 170.855 171.153 -0.13 +0.07    -0.283 N 
ATOM     15  H   UNL     1     164.470 170.245 170.345 +0.00 -0.07    +0.155 HD
ATOM     16  O   UNL     1     164.398 170.700 173.463 -0.19 +0.08    -0.274 OA
BRANCH  14  17
ATOM     17  C   UNL     1     165.003 172.121 171.016 -0.22 -0.00    +0.052 A 
ATOM     18  C   UNL     1     164.570 172.980 169.995 -0.29 -0.01    +0.062 A 
ATOM     19 CL   UNL     1     163.337 172.483 168.886 -0.51 +0.03    -0.082 Cl
ATOM     20  C   UNL     1     165.154 174.236 169.822 -0.26 -0.00    +0.025 A 
ATOM     21  C   UNL     1     166.146 174.681 170.703 -0.20 -0.00    -0.049 A 
ATOM     22  C   UNL     1     166.753 176.041 170.515 -0.24 -0.00    +0.044 C 
ATOM     23  C   UNL     1     166.566 173.837 171.738 -0.08 +0.00    +0.005 A 
ATOM     24  C   UNL     1     166.004 172.562 171.889 -0.16 -0.00    +0.025 A 
ENDBRANCH  14  17
ENDBRANCH   1  13
TORSDOF 4
TER
ENDMDL
