MODEL        1
USER    Run = 1
USER
USER    Estimated Free Energy of Binding    =  -5.05 kcal/mol  [=(1)+(2)+(3)-(4)]
USER
USER    (1) Final Intermolecular Energy     =  -7.14 kcal/mol
USER        vdW + Hbond + desolv Energy     =  -7.03 kcal/mol
USER        Electrostatic Energy            =  -0.11 kcal/mol
USER        Moving Ligand-Fixed Receptor    =  -7.14 kcal/mol
USER        Moving Ligand-Moving Receptor   =  +0.00 kcal/mol
USER    (2) Final Total Internal Energy     =  -1.28 kcal/mol
USER    (3) Torsional Free Energy           =  +2.09 kcal/mol
USER    (4) Unbound System's Energy         =  -1.28 kcal/mol
USER
USER
REMARK  Name = Z15809202
REMARK  7 active torsions:
REMARK  status: ('A' for Active; 'I' for Inactive)
REMARK    1  A    between atoms: C_8  and  N_9
REMARK    2  A    between atoms: C_10  and  C_12
REMARK    3  A    between atoms: C_12  and  S_13
REMARK    4  A    between atoms: S_13  and  C_14
REMARK    5  A    between atoms: C_17  and  C_18
REMARK    6  A    between atoms: N_24  and  C_25
REMARK    7  A    between atoms: C_25  and  C_26
REMARK                            x       y       z     vdW  Elec       q    Type
REMARK                         _______ _______ _______ _____ _____    ______ ____
USER                              x       y       z     vdW  Elec       q    Type
USER                           _______ _______ _______ _____ _____    ______ ____
ROOT
ATOM      1  S   UNL     1     165.517 170.991 171.510 -0.38 +0.01    -0.077 S 
ENDROOT
BRANCH   1   2
ATOM      2  C   UNL     1     164.175 170.121 172.196 -0.16 -0.05    +0.193 A 
ATOM      3  N   UNL     1     163.810 170.226 173.519 -0.12 +0.07    -0.298 N 
ATOM      4  C   UNL     1     162.769 169.326 173.712 -0.23 -0.03    +0.165 A 
ATOM      5  N   UNL     1     162.465 168.828 172.521 -0.31 +0.03    -0.128 NA
ATOM      6  N   UNL     1     163.361 169.304 171.581 -0.32 +0.04    -0.122 NA
BRANCH   4   7
ATOM      7  C   UNL     1     162.098 168.963 174.983 -0.31 -0.00    +0.019 A 
ATOM      8  C   UNL     1     161.047 169.748 175.483 -0.44 -0.00    +0.012 A 
ATOM      9  C   UNL     1     160.366 169.391 176.660 -0.47 -0.00    +0.001 A 
ATOM     10  C   UNL     1     160.722 168.244 177.361 -0.48 -0.00    +0.000 A 
ATOM     11  C   UNL     1     161.747 167.445 176.881 -0.43 -0.00    +0.001 A 
ATOM     12  C   UNL     1     162.412 167.799 175.701 -0.36 -0.00    +0.012 A 
ENDBRANCH   4   7
BRANCH   3  13
ATOM     13  C   UNL     1     164.323 171.191 174.477 -0.14 -0.04    +0.152 C 
BRANCH  13  14
ATOM     14  C   UNL     1     163.395 172.326 174.828 -0.21 +0.00    -0.013 C 
ATOM     15  C   UNL     1     162.976 172.703 176.046 -0.31 +0.00    +0.005 C 
ENDBRANCH  13  14
ENDBRANCH   3  13
ENDBRANCH   1   2
BRANCH   1  16
ATOM     16  C   UNL     1     164.790 171.847 170.083 -0.20 -0.02    +0.173 C 
BRANCH  16  19
ATOM     17  N   UNL     1     165.414 174.155 170.679 -0.12 +0.00    -0.282 N 
ATOM     18  H   UNL     1     164.881 173.963 171.520 +0.09 -0.02    +0.155 HD
ATOM     19  C   UNL     1     165.602 173.112 169.780 -0.23 +0.05    +0.228 C 
ATOM     20  O   UNL     1     166.366 173.144 168.817 -0.90 -0.17    -0.275 OA
BRANCH  17  23
ATOM     21  F   UNL     1     165.045 175.911 172.739 +0.01 +0.06    -0.203 F 
ATOM     22  C   UNL     1     165.812 176.311 171.712 -0.02 -0.03    +0.145 A 
ATOM     23  C   UNL     1     166.026 175.438 170.632 -0.17 -0.00    +0.069 A 
ATOM     24  C   UNL     1     166.827 175.888 169.575 -0.23 +0.00    +0.027 A 
ATOM     25  C   UNL     1     167.404 177.167 169.614 -0.22 -0.00    +0.017 A 
ATOM     26  C   UNL     1     167.190 178.003 170.710 -0.14 -0.00    +0.021 A 
ATOM     27 BR   UNL     1     167.984 179.718 170.754 -0.17 +0.00    -0.050 Br
ATOM     28  C   UNL     1     166.391 177.580 171.768 -0.07 -0.01    +0.055 A 
ENDBRANCH  17  23
ENDBRANCH  16  19
ENDBRANCH   1  16
TORSDOF 7
TER
ENDMDL
