MODEL        1
USER    Run = 1
USER
USER    Estimated Free Energy of Binding    =  -3.93 kcal/mol  [=(1)+(2)+(3)-(4)]
USER
USER    (1) Final Intermolecular Energy     =  -5.42 kcal/mol
USER        vdW + Hbond + desolv Energy     =  -5.44 kcal/mol
USER        Electrostatic Energy            =  +0.02 kcal/mol
USER        Moving Ligand-Fixed Receptor    =  -5.42 kcal/mol
USER        Moving Ligand-Moving Receptor   =  +0.00 kcal/mol
USER    (2) Final Total Internal Energy     =  -1.73 kcal/mol
USER    (3) Torsional Free Energy           =  +1.49 kcal/mol
USER    (4) Unbound System's Energy         =  -1.73 kcal/mol
USER
USER
REMARK  Name = Z15889825
REMARK  6 active torsions:
REMARK  status: ('A' for Active; 'I' for Inactive)
REMARK    1  A    between atoms: C_1  and  C_2
REMARK    2  A    between atoms: C_7  and  O_8
REMARK    3  A    between atoms: O_8  and  C_9
REMARK    4  A    between atoms: C_9  and  C_10
REMARK    5  A    between atoms: N_12  and  C_13
REMARK    6  A    between atoms: C_13  and  C_14
REMARK                            x       y       z     vdW  Elec       q    Type
REMARK                         _______ _______ _______ _____ _____    ______ ____
USER                              x       y       z     vdW  Elec       q    Type
USER                           _______ _______ _______ _____ _____    ______ ____
ROOT
ATOM      1  C   UNL     1     160.166 167.811 176.612 -0.31 -0.01    +0.074 C 
ATOM      2  C   UNL     1     158.776 167.627 177.113 -0.34 -0.03    +0.076 A 
ATOM      3  S   UNL     1     157.926 168.983 177.762 -0.54 +0.03    -0.072 S 
ATOM      4  C   UNL     1     156.573 167.982 178.074 -0.42 -0.03    +0.044 A 
ATOM      5  C   UNL     1     155.327 168.248 178.650 -0.31 -0.05    +0.063 A 
ATOM      6  C   UNL     1     154.385 167.192 178.778 -0.27 -0.10    +0.131 A 
ATOM      7  C   UNL     1     154.696 165.864 178.366 -0.30 -0.02    +0.033 A 
ATOM      8  C   UNL     1     155.950 165.678 177.803 -0.33 -0.02    +0.049 A 
ATOM      9  S   UNL     1     156.310 164.123 177.316 -0.24 +0.04    -0.094 S 
ATOM     10  C   UNL     1     154.781 163.568 177.856 +0.09 -0.02    +0.046 A 
ATOM     11  C   UNL     1     154.027 164.590 178.402 -0.24 -0.01    +0.020 A 
ATOM     12  C   UNL     1     156.871 166.698 177.652 -0.37 -0.05    +0.093 A 
ATOM     13  N   UNL     1     158.120 166.483 177.106 -0.24 +0.09    -0.243 NA
ENDROOT
BRANCH   6  14
ATOM     14  O   UNL     1     153.225 167.596 179.429 -0.08 +0.48    -0.482 OA
BRANCH  14  15
ATOM     15  C   UNL     1     152.872 166.860 180.598 -0.15 -0.24    +0.324 C 
BRANCH  15  16
ATOM     16  C   UNL     1     151.698 165.920 180.306 -0.18 -0.12    +0.251 C 
ATOM     17  N   UNL     1     151.047 166.156 179.115 -0.08 +0.18    -0.304 N 
ATOM     18  H   UNL     1     151.491 166.808 178.475 -0.42 -0.18    +0.149 HD
ATOM     19  O   UNL     1     151.359 165.028 181.077 -0.29 +0.08    -0.272 OA
BRANCH  17  20
ATOM     20  C   UNL     1     149.987 165.273 178.633 -0.17 -0.05    +0.217 C 
BRANCH  20  21
ATOM     21  C   UNL     1     150.400 164.236 177.577 -0.09 -0.09    +0.405 C 
ATOM     22  F   UNL     1     150.907 163.132 178.183 -0.07 +0.02    -0.169 F 
ATOM     23  F   UNL     1     151.352 164.711 176.747 -0.03 +0.06    -0.169 F 
ATOM     24  F   UNL     1     149.354 163.824 176.825 -0.04 +0.03    -0.169 F 
ENDBRANCH  20  21
ENDBRANCH  17  20
ENDBRANCH  15  16
ENDBRANCH  14  15
ENDBRANCH   6  14
TORSDOF 5
TER
ENDMDL
