MODEL        1
USER    Run = 1
USER
USER    Estimated Free Energy of Binding    =  -5.84 kcal/mol  [=(1)+(2)+(3)-(4)]
USER
USER    (1) Final Intermolecular Energy     =  -7.63 kcal/mol
USER        vdW + Hbond + desolv Energy     =  -7.49 kcal/mol
USER        Electrostatic Energy            =  -0.14 kcal/mol
USER        Moving Ligand-Fixed Receptor    =  -7.63 kcal/mol
USER        Moving Ligand-Moving Receptor   =  +0.00 kcal/mol
USER    (2) Final Total Internal Energy     =  -0.67 kcal/mol
USER    (3) Torsional Free Energy           =  +1.79 kcal/mol
USER    (4) Unbound System's Energy         =  -0.67 kcal/mol
USER
USER
REMARK  Name = Z15836265
REMARK  8 active torsions:
REMARK  status: ('A' for Active; 'I' for Inactive)
REMARK    1  A    between atoms: C_1  and  O_2
REMARK    2  A    between atoms: O_2  and  C_3
REMARK    3  A    between atoms: C_3  and  C_5
REMARK    4  A    between atoms: C_9  and  C_10
REMARK    5  A    between atoms: C_10  and  S_11
REMARK    6  A    between atoms: S_11  and  C_12
REMARK    7  A    between atoms: C_15  and  C_16
REMARK    8  A    between atoms: N_23  and  C_24
REMARK                            x       y       z     vdW  Elec       q    Type
REMARK                         _______ _______ _______ _____ _____    ______ ____
USER                              x       y       z     vdW  Elec       q    Type
USER                           _______ _______ _______ _____ _____    ______ ____
ROOT
ATOM      1  C   UNL     1     162.241 168.846 175.436 -0.10 -0.02    +0.192 A 
ATOM      2  N   UNL     1     160.962 169.176 175.799 -0.20 +0.01    -0.305 N 
ATOM      3  C   UNL     1     160.299 170.429 175.538 -0.38 -0.00    +0.153 C 
ATOM      4  C   UNL     1     160.473 168.090 176.500 -0.21 -0.02    +0.165 A 
ATOM      5  N   UNL     1     161.482 167.252 176.688 -0.35 +0.01    -0.128 NA
ATOM      6  N   UNL     1     162.582 167.716 176.003 -0.35 +0.02    -0.122 NA
ENDROOT
BRANCH   4   7
ATOM      7  C   UNL     1     159.098 167.869 176.971 -0.40 -0.01    +0.019 A 
ATOM      8  C   UNL     1     158.536 166.586 177.073 -0.24 -0.00    +0.013 A 
ATOM      9  C   UNL     1     157.226 166.406 177.531 -0.41 -0.01    +0.021 A 
ATOM     10  C   UNL     1     156.472 167.507 177.923 -0.45 -0.02    +0.041 A 
ATOM     11 CL   UNL     1     154.863 167.284 178.489 -0.58 +0.06    -0.084 Cl
ATOM     12  C   UNL     1     157.021 168.785 177.870 -0.34 -0.01    +0.021 A 
ATOM     13  C   UNL     1     158.327 168.963 177.398 -0.41 -0.01    +0.013 A 
ENDBRANCH   4   7
BRANCH   1  14
ATOM     14  S   UNL     1     163.198 169.795 174.353 -0.39 +0.02    -0.081 S 
BRANCH  14  15
ATOM     15  C   UNL     1     163.418 168.647 172.956 -0.37 -0.02    +0.112 C 
BRANCH  15  18
ATOM     16  C   UNL     1     164.160 171.292 170.282 -0.13 -0.01    +0.059 A 
ATOM     17  C   UNL     1     164.201 170.560 171.481 -0.21 -0.00    +0.019 A 
ATOM     18  C   UNL     1     163.426 169.397 171.641 -0.25 +0.01    -0.036 A 
ATOM     19  C   UNL     1     162.618 168.973 170.573 -0.33 -0.00    +0.004 A 
ATOM     20  C   UNL     1     162.586 169.687 169.374 -0.22 -0.00    +0.001 A 
ATOM     21  C   UNL     1     163.351 170.844 169.229 -0.15 -0.01    +0.015 A 
BRANCH  16  22
ATOM     22  C   UNL     1     164.916 172.561 170.089 -0.13 -0.01    +0.339 C 
ATOM     23  O   UNL     1     165.976 172.632 169.486 -0.73 -0.14    -0.245 OA
BRANCH  22  25
ATOM     24  C   UNL     1     164.837 174.085 171.861 -0.06 -0.05    +0.280 C 
ATOM     25  O   UNL     1     164.252 173.602 170.651 -0.07 +0.08    -0.465 OA
ENDBRANCH  22  25
ENDBRANCH  16  22
ENDBRANCH  15  18
ENDBRANCH  14  15
ENDBRANCH   1  14
TORSDOF 6
TER
ENDMDL
