MODEL        1
USER    Run = 1
USER
USER    Estimated Free Energy of Binding    =  -5.81 kcal/mol  [=(1)+(2)+(3)-(4)]
USER
USER    (1) Final Intermolecular Energy     =  -7.00 kcal/mol
USER        vdW + Hbond + desolv Energy     =  -7.05 kcal/mol
USER        Electrostatic Energy            =  +0.04 kcal/mol
USER        Moving Ligand-Fixed Receptor    =  -7.00 kcal/mol
USER        Moving Ligand-Moving Receptor   =  +0.00 kcal/mol
USER    (2) Final Total Internal Energy     =  -0.59 kcal/mol
USER    (3) Torsional Free Energy           =  +1.19 kcal/mol
USER    (4) Unbound System's Energy         =  -0.59 kcal/mol
USER
USER
REMARK  Name = Z15860756
REMARK  6 active torsions:
REMARK  status: ('A' for Active; 'I' for Inactive)
REMARK    1  A    between atoms: C_1  and  C_2
REMARK    2  A    between atoms: C_11  and  C_13
REMARK    3  A    between atoms: C_13  and  O_14
REMARK    4  A    between atoms: O_14  and  C_15
REMARK    5  A    between atoms: C_18  and  N_19
REMARK    6  A    between atoms: C_20  and  C_22
REMARK                            x       y       z     vdW  Elec       q    Type
REMARK                         _______ _______ _______ _____ _____    ______ ____
USER                              x       y       z     vdW  Elec       q    Type
USER                           _______ _______ _______ _____ _____    ______ ____
ROOT
ATOM      1  C   UNL     1     158.705 167.783 176.731 -0.16 -0.12    +0.325 C 
ENDROOT
BRANCH   1   5
ATOM      2  C   UNL     1     157.973 164.889 177.849 -0.36 -0.01    +0.029 C 
ATOM      3  C   UNL     1     156.744 165.613 177.293 -0.41 -0.04    +0.083 C 
ATOM      4  N   UNL     1     156.588 167.010 177.791 -0.28 +0.14    -0.265 N 
ATOM      5  C   UNL     1     157.400 168.103 177.490 -0.32 -0.15    +0.258 C 
ATOM      6  O   UNL     1     157.152 169.262 177.824 -0.34 +0.16    -0.272 OA
ATOM      7  C   UNL     1     155.363 167.086 178.496 -0.42 -0.02    +0.040 A 
ATOM      8  C   UNL     1     154.706 165.854 178.470 -0.33 +0.01    -0.024 A 
ATOM      9  C   UNL     1     153.478 165.664 179.091 -0.33 -0.00    +0.005 A 
ATOM     10  C   UNL     1     152.899 166.740 179.758 -0.31 -0.00    +0.000 A 
ATOM     11  C   UNL     1     153.546 167.980 179.793 -0.30 -0.00    +0.002 A 
ATOM     12  C   UNL     1     154.786 168.162 179.156 -0.34 -0.02    +0.024 A 
ATOM     13  C   UNL     1     155.467 164.840 177.690 -0.15 -0.03    +0.059 C 
ENDBRANCH   1   5
BRANCH   1  14
ATOM     14  O   UNL     1     159.858 168.419 177.269 -0.19 +0.12    -0.483 OA
BRANCH  14  15
ATOM     15  C   UNL     1     160.839 168.712 176.361 -0.33 -0.01    +0.121 A 
ATOM     16  C   UNL     1     160.747 169.977 175.787 -0.43 -0.00    +0.047 A 
ATOM     17  C   UNL     1     161.736 170.432 174.909 -0.36 -0.00    +0.027 A 
ATOM     18  C   UNL     1     162.814 169.611 174.563 -0.26 -0.01    +0.034 A 
ATOM     19  C   UNL     1     162.873 168.322 175.094 -0.30 -0.00    +0.027 A 
ATOM     20  C   UNL     1     161.888 167.870 175.987 -0.35 -0.00    +0.047 A 
BRANCH  18  21
ATOM     21  N   UNL     1     163.797 170.159 173.712 -0.13 +0.07    -0.286 N 
ATOM     22  H   UNL     1     164.329 170.930 174.094 +0.11 -0.04    +0.155 HD
ATOM     23  C   UNL     1     164.069 169.793 172.406 -0.23 -0.06    +0.214 C 
ATOM     24  C   UNL     1     165.258 170.512 171.819 -0.24 -0.03    +0.109 C 
ATOM     25  O   UNL     1     163.443 168.983 171.730 -0.29 +0.08    -0.276 OA
ENDBRANCH  18  21
ENDBRANCH  14  15
ENDBRANCH   1  14
TORSDOF 4
TER
ENDMDL
