MODEL        1
USER    Run = 1
USER
USER    Estimated Free Energy of Binding    =  -4.74 kcal/mol  [=(1)+(2)+(3)-(4)]
USER
USER    (1) Final Intermolecular Energy     =  -6.23 kcal/mol
USER        vdW + Hbond + desolv Energy     =  -6.17 kcal/mol
USER        Electrostatic Energy            =  -0.06 kcal/mol
USER        Moving Ligand-Fixed Receptor    =  -6.23 kcal/mol
USER        Moving Ligand-Moving Receptor   =  +0.00 kcal/mol
USER    (2) Final Total Internal Energy     =  -0.89 kcal/mol
USER    (3) Torsional Free Energy           =  +1.49 kcal/mol
USER    (4) Unbound System's Energy         =  -0.89 kcal/mol
USER
USER
REMARK  Name = Z15891979
REMARK  6 active torsions:
REMARK  status: ('A' for Active; 'I' for Inactive)
REMARK    1  A    between atoms: C_1  and  C_2
REMARK    2  A    between atoms: C_2  and  C_3
REMARK    3  A    between atoms: N_11  and  C_12
REMARK    4  A    between atoms: C_12  and  C_13
REMARK    5  A    between atoms: N_15  and  C_16
REMARK    6  A    between atoms: C_20  and  C_22
REMARK                            x       y       z     vdW  Elec       q    Type
REMARK                         _______ _______ _______ _____ _____    ______ ____
USER                              x       y       z     vdW  Elec       q    Type
USER                           _______ _______ _______ _____ _____    ______ ____
ROOT
ATOM      1  C   UNL     1     153.923 166.467 180.181 -0.27 -0.16    +0.237 C 
ATOM      2  N   UNL     1     154.870 167.397 179.765 -0.20 +0.24    -0.284 N 
ATOM      3  H   UNL     1     154.774 168.348 180.101 -0.48 -0.21    +0.155 HD
ATOM      4  O   UNL     1     153.738 165.361 179.677 -0.23 +0.13    -0.274 OA
ENDROOT
BRANCH   2   5
ATOM      5  C   UNL     1     155.809 167.193 178.723 -0.41 -0.02    +0.034 A 
ATOM      6  C   UNL     1     155.996 165.892 178.232 -0.33 -0.02    +0.035 A 
ATOM      7  C   UNL     1     156.988 165.619 177.267 -0.36 -0.03    +0.057 A 
ATOM      8  C   UNL     1     157.764 166.675 176.766 -0.39 -0.01    +0.012 A 
ATOM      9  C   UNL     1     157.540 167.975 177.206 -0.38 -0.00    +0.002 A 
ATOM     10  C   UNL     1     156.565 168.230 178.170 -0.40 -0.01    +0.023 A 
BRANCH   7  11
ATOM     11  C   UNL     1     157.229 164.207 176.791 -0.08 -0.21    +0.417 C 
ATOM     12  F   UNL     1     158.373 163.675 177.304 -0.06 +0.07    -0.166 F 
ATOM     13  F   UNL     1     157.353 164.127 175.438 -0.13 +0.15    -0.166 F 
ATOM     14  F   UNL     1     156.233 163.338 177.126 -0.08 +0.08    -0.166 F 
ENDBRANCH   7  11
ENDBRANCH   2   5
BRANCH   1  15
ATOM     15  C   UNL     1     153.072 166.901 181.359 -0.23 -0.17    +0.219 C 
BRANCH  15  17
ATOM     16  C   UNL     1     150.557 166.976 181.061 -0.15 -0.06    +0.111 A 
ATOM     17  N   UNL     1     151.825 167.516 180.943 -0.06 +0.24    -0.319 N 
ATOM     18  C   UNL     1     151.702 168.786 180.421 -0.19 -0.06    +0.069 A 
ATOM     19  C   UNL     1     150.336 168.936 180.212 -0.09 -0.06    +0.089 A 
ATOM     20  C   UNL     1     149.836 170.127 179.670 -0.14 -0.02    +0.030 A 
ATOM     21  C   UNL     1     150.736 171.151 179.354 -0.24 -0.00    +0.002 A 
ATOM     22  C   UNL     1     152.103 170.988 179.580 -0.16 -0.00    +0.002 A 
ATOM     23  C   UNL     1     152.619 169.803 180.123 -0.30 -0.03    +0.028 A 
ATOM     24  N   UNL     1     149.654 167.822 180.609 -0.03 +0.13    -0.232 NA
BRANCH  16  26
ATOM     25  C   UNL     1     150.957 164.506 180.869 -0.37 -0.00    +0.012 C 
ATOM     26  C   UNL     1     150.257 165.626 181.633 -0.41 -0.02    +0.071 C 
ENDBRANCH  16  26
ENDBRANCH  15  17
ENDBRANCH   1  15
TORSDOF 5
TER
ENDMDL
