MODEL        1
USER    Run = 1
USER
USER    Estimated Free Energy of Binding    =  -5.22 kcal/mol  [=(1)+(2)+(3)-(4)]
USER
USER    (1) Final Intermolecular Energy     =  -7.30 kcal/mol
USER        vdW + Hbond + desolv Energy     =  -7.28 kcal/mol
USER        Electrostatic Energy            =  -0.02 kcal/mol
USER        Moving Ligand-Fixed Receptor    =  -7.30 kcal/mol
USER        Moving Ligand-Moving Receptor   =  +0.00 kcal/mol
USER    (2) Final Total Internal Energy     =  -1.53 kcal/mol
USER    (3) Torsional Free Energy           =  +2.09 kcal/mol
USER    (4) Unbound System's Energy         =  -1.53 kcal/mol
USER
USER
REMARK  Name = Z15809319
REMARK  7 active torsions:
REMARK  status: ('A' for Active; 'I' for Inactive)
REMARK    1  A    between atoms: C_5  and  N_6
REMARK    2  A    between atoms: C_7  and  C_9
REMARK    3  A    between atoms: C_9  and  S_10
REMARK    4  A    between atoms: S_10  and  C_11
REMARK    5  A    between atoms: C_14  and  C_15
REMARK    6  A    between atoms: N_21  and  C_22
REMARK    7  A    between atoms: C_22  and  C_23
REMARK                            x       y       z     vdW  Elec       q    Type
REMARK                         _______ _______ _______ _____ _____    ______ ____
USER                              x       y       z     vdW  Elec       q    Type
USER                           _______ _______ _______ _____ _____    ______ ____
ROOT
ATOM      1  S   UNL     1     164.518 171.255 170.725 -0.35 +0.02    -0.077 S 
ENDROOT
BRANCH   1   2
ATOM      2  C   UNL     1     165.263 172.687 170.096 -0.18 +0.02    +0.193 A 
ATOM      3  N   UNL     1     165.188 173.922 170.697 -0.11 +0.01    -0.298 N 
ATOM      4  C   UNL     1     166.047 174.744 169.978 -0.17 +0.01    +0.165 A 
ATOM      5  N   UNL     1     166.489 174.043 168.944 -0.39 -0.05    -0.128 NA
ATOM      6  N   UNL     1     166.015 172.757 169.029 -0.84 -0.06    -0.122 NA
BRANCH   4   7
ATOM      7  C   UNL     1     166.431 176.143 170.256 -0.20 -0.00    +0.019 A 
ATOM      8  C   UNL     1     166.134 176.799 171.457 -0.10 -0.00    +0.012 A 
ATOM      9  C   UNL     1     166.568 178.103 171.718 -0.09 -0.00    +0.001 A 
ATOM     10  C   UNL     1     167.339 178.778 170.778 -0.12 -0.00    +0.000 A 
ATOM     11  C   UNL     1     167.667 178.142 169.583 -0.17 -0.00    +0.001 A 
ATOM     12  C   UNL     1     167.217 176.840 169.325 -0.23 -0.00    +0.012 A 
ENDBRANCH   4   7
BRANCH   3  13
ATOM     13  C   UNL     1     164.245 174.321 171.730 -0.11 -0.03    +0.152 C 
BRANCH  13  14
ATOM     14  C   UNL     1     164.663 174.060 173.154 -0.16 +0.00    -0.013 C 
ATOM     15  C   UNL     1     163.939 174.217 174.272 -0.19 +0.00    +0.005 C 
ENDBRANCH  13  14
ENDBRANCH   3  13
ENDBRANCH   1   2
BRANCH   1  16
ATOM     16  C   UNL     1     165.568 170.840 172.150 -0.18 -0.05    +0.173 C 
BRANCH  16  19
ATOM     17  N   UNL     1     163.518 170.172 173.337 -0.13 +0.06    -0.284 N 
ATOM     18  H   UNL     1     163.098 170.314 172.422 +0.11 -0.04    +0.155 HD
ATOM     19  C   UNL     1     164.840 170.546 173.458 -0.20 -0.08    +0.228 C 
ATOM     20  O   UNL     1     165.469 170.586 174.516 -0.22 +0.14    -0.275 OA
BRANCH  17  26
ATOM     21 CL   UNL     1     159.574 168.632 177.497 -0.66 +0.02    -0.084 Cl
ATOM     22  C   UNL     1     160.753 169.110 176.339 -0.42 -0.00    +0.043 A 
ATOM     23  C   UNL     1     161.683 168.179 175.880 -0.28 -0.00    +0.041 A 
ATOM     24  C   UNL     1     162.610 168.566 174.912 -0.29 -0.01    +0.064 A 
ATOM     25 CL   UNL     1     163.750 167.382 174.371 -0.59 +0.02    -0.082 Cl
ATOM     26  C   UNL     1     162.609 169.869 174.379 -0.29 -0.01    +0.052 A 
ATOM     27  C   UNL     1     161.697 170.797 174.895 -0.30 -0.00    +0.026 A 
ATOM     28  C   UNL     1     160.770 170.417 175.866 -0.42 -0.00    +0.022 A 
ENDBRANCH  17  26
ENDBRANCH  16  19
ENDBRANCH   1  16
TORSDOF 7
TER
ENDMDL
