MODEL        1
USER    Run = 1
USER
USER    Estimated Free Energy of Binding    =  -5.87 kcal/mol  [=(1)+(2)+(3)-(4)]
USER
USER    (1) Final Intermolecular Energy     =  -7.36 kcal/mol
USER        vdW + Hbond + desolv Energy     =  -7.31 kcal/mol
USER        Electrostatic Energy            =  -0.05 kcal/mol
USER        Moving Ligand-Fixed Receptor    =  -7.36 kcal/mol
USER        Moving Ligand-Moving Receptor   =  +0.00 kcal/mol
USER    (2) Final Total Internal Energy     =  -0.59 kcal/mol
USER    (3) Torsional Free Energy           =  +1.49 kcal/mol
USER    (4) Unbound System's Energy         =  -0.59 kcal/mol
USER
USER
REMARK  Name = Z15835384
REMARK  7 active torsions:
REMARK  status: ('A' for Active; 'I' for Inactive)
REMARK    1  A    between atoms: C_1  and  O_2
REMARK    2  A    between atoms: O_2  and  C_3
REMARK    3  A    between atoms: C_6  and  C_7
REMARK    4  A    between atoms: C_7  and  S_8
REMARK    5  A    between atoms: S_8  and  C_9
REMARK    6  A    between atoms: C_12  and  C_13
REMARK    7  A    between atoms: N_20  and  C_21
REMARK                            x       y       z     vdW  Elec       q    Type
REMARK                         _______ _______ _______ _____ _____    ______ ____
USER                              x       y       z     vdW  Elec       q    Type
USER                           _______ _______ _______ _____ _____    ______ ____
ROOT
ATOM      1  C   UNL     1     157.507 167.160 177.447 -0.26 -0.09    +0.192 A 
ATOM      2  N   UNL     1     156.327 167.356 178.111 -0.26 +0.16    -0.305 N 
ATOM      3  C   UNL     1     155.838 168.620 178.597 -0.07 -0.11    +0.153 C 
ATOM      4  C   UNL     1     155.714 166.120 178.198 -0.28 -0.08    +0.165 A 
ATOM      5  N   UNL     1     156.440 165.274 177.480 -0.31 +0.06    -0.128 NA
ATOM      6  N   UNL     1     157.580 165.922 177.029 -0.36 +0.05    -0.122 NA
ENDROOT
BRANCH   4   7
ATOM      7  C   UNL     1     154.491 165.782 178.955 -0.33 -0.01    +0.019 A 
ATOM      8  C   UNL     1     154.215 166.414 180.179 -0.38 -0.01    +0.013 A 
ATOM      9  C   UNL     1     153.032 166.143 180.885 -0.32 -0.01    +0.021 A 
ATOM     10  C   UNL     1     152.110 165.234 180.375 -0.29 -0.02    +0.041 A 
ATOM     11 CL   UNL     1     150.644 164.920 181.217 -0.58 +0.01    -0.084 Cl
ATOM     12  C   UNL     1     152.362 164.591 179.168 -0.30 -0.01    +0.021 A 
ATOM     13  C   UNL     1     153.535 164.877 178.458 -0.29 -0.01    +0.013 A 
ENDBRANCH   4   7
BRANCH   1  14
ATOM     14  S   UNL     1     158.656 168.445 177.269 -0.62 +0.03    -0.081 S 
BRANCH  14  15
ATOM     15  C   UNL     1     160.294 167.676 177.396 -0.38 -0.02    +0.112 C 
BRANCH  15  20
ATOM     16  C   UNL     1     162.956 169.380 174.395 -0.21 -0.03    +0.155 A 
ATOM     17  C   UNL     1     163.174 168.097 174.909 -0.24 -0.03    +0.165 A 
ATOM     18  F   UNL     1     164.244 167.389 174.517 -0.13 +0.06    -0.202 F 
ATOM     19  C   UNL     1     162.302 167.523 175.840 -0.35 -0.01    +0.046 A 
ATOM     20  C   UNL     1     161.183 168.235 176.295 -0.36 +0.00    -0.034 A 
ATOM     21  C   UNL     1     160.968 169.525 175.785 -0.43 -0.00    +0.008 A 
ATOM     22  C   UNL     1     161.842 170.093 174.843 -0.35 -0.00    +0.049 A 
BRANCH  16  24
ATOM     23  C   UNL     1     165.153 170.237 174.083 -0.15 -0.12    +0.277 C 
ATOM     24  O   UNL     1     163.901 169.854 173.526 -0.07 +0.13    -0.492 OA
ENDBRANCH  16  24
ENDBRANCH  15  20
ENDBRANCH  14  15
ENDBRANCH   1  14
TORSDOF 5
TER
ENDMDL
