MODEL        1
USER    Run = 1
USER
USER    Estimated Free Energy of Binding    =  -7.51 kcal/mol  [=(1)+(2)+(3)-(4)]
USER
USER    (1) Final Intermolecular Energy     =  -9.30 kcal/mol
USER        vdW + Hbond + desolv Energy     =  -8.57 kcal/mol
USER        Electrostatic Energy            =  -0.73 kcal/mol
USER        Moving Ligand-Fixed Receptor    =  -9.30 kcal/mol
USER        Moving Ligand-Moving Receptor   =  +0.00 kcal/mol
USER    (2) Final Total Internal Energy     =  -0.77 kcal/mol
USER    (3) Torsional Free Energy           =  +1.79 kcal/mol
USER    (4) Unbound System's Energy         =  -0.77 kcal/mol
USER
USER
REMARK  Name = Z15808558
REMARK  8 active torsions:
REMARK  status: ('A' for Active; 'I' for Inactive)
REMARK    1  A    between atoms: C_1  and  C_2
REMARK    2  A    between atoms: C_6  and  C_13
REMARK    3  A    between atoms: C_11  and  C_12
REMARK    4  A    between atoms: C_13  and  S_14
REMARK    5  A    between atoms: S_14  and  C_15
REMARK    6  A    between atoms: C_18  and  C_19
REMARK    7  A    between atoms: N_25  and  C_26
REMARK    8  A    between atoms: C_26  and  C_27
REMARK                            x       y       z     vdW  Elec       q    Type
REMARK                         _______ _______ _______ _____ _____    ______ ____
USER                              x       y       z     vdW  Elec       q    Type
USER                           _______ _______ _______ _____ _____    ______ ____
ROOT
ATOM      1  S   UNL     1     157.986 168.757 177.593 -0.60 +0.04    -0.074 S 
ENDROOT
BRANCH   1   2
ATOM      2  C   UNL     1     159.530 168.227 177.009 -0.30 -0.05    +0.193 A 
ATOM      3  N   UNL     1     160.206 168.846 175.986 -0.15 +0.02    -0.298 N 
ATOM      4  C   UNL     1     161.433 168.204 175.893 -0.12 -0.01    +0.165 A 
ATOM      5  N   UNL     1     161.439 167.229 176.791 -0.36 +0.01    -0.128 NA
ATOM      6  N   UNL     1     160.244 167.232 177.473 -0.33 +0.03    -0.122 NA
BRANCH   4   7
ATOM      7  C   UNL     1     162.571 168.535 175.012 -0.31 -0.00    +0.019 A 
ATOM      8  C   UNL     1     163.804 167.893 175.203 -0.30 -0.00    +0.012 A 
ATOM      9  C   UNL     1     164.907 168.183 174.388 -0.40 -0.00    +0.001 A 
ATOM     10  C   UNL     1     164.797 169.121 173.364 -0.29 -0.00    +0.000 A 
ATOM     11  C   UNL     1     163.583 169.751 173.144 -0.34 -0.00    +0.001 A 
ATOM     12  C   UNL     1     162.482 169.445 173.950 -0.34 -0.00    +0.012 A 
ENDBRANCH   4   7
BRANCH   3  13
ATOM     13  C   UNL     1     159.769 170.027 175.259 -0.32 -0.00    +0.152 C 
BRANCH  13  14
ATOM     14  C   UNL     1     160.581 171.275 175.508 -0.35 -0.00    -0.013 C 
ATOM     15  C   UNL     1     161.593 171.451 176.371 -0.35 +0.00    +0.005 C 
ENDBRANCH  13  14
ENDBRANCH   3  13
ENDBRANCH   1   2
BRANCH   1  16
ATOM     16  C   UNL     1     157.147 167.213 178.022 -0.16 -0.10    +0.210 C 
BRANCH  16  24
ATOM     17  C   UNL     1     151.401 164.720 181.271 -0.38 -0.01    +0.024 C 
ATOM     18  C   UNL     1     151.754 165.757 180.219 -0.30 -0.04    +0.078 C 
ATOM     19  C   UNL     1     152.642 166.931 180.601 -0.33 +0.03    -0.040 C 
ATOM     20  C   UNL     1     152.826 167.418 181.991 -0.31 -0.04    +0.041 C 
ATOM     21  C   UNL     1     153.335 167.414 179.558 -0.26 -0.11    +0.123 C 
ATOM     22  C   UNL     1     153.698 166.357 178.656 -0.17 -0.16    +0.225 C 
ATOM     23  N   UNL     1     154.806 166.355 177.998 -0.34 +0.02    -0.034 NA
ATOM     24  C   UNL     1     155.667 167.393 178.331 -0.25 -0.21    +0.347 C 
ATOM     25  N   UNL     1     155.327 168.496 178.908 -0.45 -0.03    +0.032 NA
ATOM     26  C   UNL     1     154.053 168.670 179.350 -0.05 -0.40    +0.379 C 
ATOM     27  O   UNL     1     153.498 169.752 179.490 -0.29 +0.24    -0.238 OA
ATOM     28  S   UNL     1     152.588 165.026 178.748 -0.43 +0.03    -0.071 S 
ENDBRANCH  16  24
ENDBRANCH   1  16
TORSDOF 6
TER
ENDMDL
