MODEL        1
USER    Run = 1
USER
USER    Estimated Free Energy of Binding    =  -4.24 kcal/mol  [=(1)+(2)+(3)-(4)]
USER
USER    (1) Final Intermolecular Energy     =  -6.33 kcal/mol
USER        vdW + Hbond + desolv Energy     =  -6.36 kcal/mol
USER        Electrostatic Energy            =  +0.04 kcal/mol
USER        Moving Ligand-Fixed Receptor    =  -6.33 kcal/mol
USER        Moving Ligand-Moving Receptor   =  +0.00 kcal/mol
USER    (2) Final Total Internal Energy     =  -3.46 kcal/mol
USER    (3) Torsional Free Energy           =  +2.09 kcal/mol
USER    (4) Unbound System's Energy         =  -3.46 kcal/mol
USER
USER
REMARK  Name = Z15815594
REMARK  8 active torsions:
REMARK  status: ('A' for Active; 'I' for Inactive)
REMARK    1  A    between atoms: C_1  and  C_2
REMARK    2  A    between atoms: C_2  and  C_3
REMARK    3  A    between atoms: C_3  and  N_4
REMARK    4  A    between atoms: C_6  and  C_7
REMARK    5  A    between atoms: C_7  and  O_9
REMARK    6  A    between atoms: O_9  and  C_10
REMARK    7  A    between atoms: C_10  and  C_11
REMARK    8  A    between atoms: N_13  and  C_14
REMARK                            x       y       z     vdW  Elec       q    Type
REMARK                         _______ _______ _______ _____ _____    ______ ____
USER                              x       y       z     vdW  Elec       q    Type
USER                           _______ _______ _______ _____ _____    ______ ____
ROOT
ATOM      1  C   UNL     1     163.861 175.263 173.470 -0.03 -0.09    +0.360 C 
ATOM      2  O   UNL     1     162.650 175.411 173.516 -0.19 +0.11    -0.243 OA
ENDROOT
BRANCH   1  11
ATOM      3  N   UNL     1     164.884 173.140 170.620 -0.16 +0.01    -0.228 N 
ATOM      4  C   UNL     1     165.822 173.851 169.880 -0.17 +0.05    +0.275 C 
ATOM      5  O   UNL     1     166.360 173.434 168.859 -0.89 -0.14    -0.266 OA
ATOM      6  C   UNL     1     166.194 175.179 170.397 -0.21 +0.00    +0.050 A 
ATOM      7  C   UNL     1     165.622 175.644 171.575 -0.12 -0.00    +0.021 A 
ATOM      8  C   UNL     1     166.046 176.875 172.084 -0.08 -0.00    +0.011 A 
ATOM      9  C   UNL     1     166.993 177.647 171.405 -0.10 -0.00    +0.001 A 
ATOM     10  C   UNL     1     167.546 177.184 170.218 -0.19 -0.00    +0.001 A 
ATOM     11  C   UNL     1     164.605 174.781 172.220 -0.12 -0.04    +0.176 C 
ATOM     12  C   UNL     1     167.152 175.946 169.716 -0.22 +0.00    +0.014 A 
ATOM     13  N   UNL     1     164.289 173.601 171.770 -0.08 +0.03    -0.161 NA
BRANCH   3  14
ATOM     14  C   UNL     1     164.543 171.779 170.216 -0.23 -0.02    +0.147 C 
BRANCH  14  16
ATOM     15  C   UNL     1     162.817 173.095 168.935 -0.48 -0.00    +0.005 C 
ATOM     16  C   UNL     1     163.578 171.785 169.030 -0.37 -0.01    +0.020 C 
ENDBRANCH  14  16
ENDBRANCH   3  14
ENDBRANCH   1  11
BRANCH   1  17
ATOM     17  O   UNL     1     164.699 175.433 174.512 +0.00 +0.01    -0.451 OA
BRANCH  17  18
ATOM     18  C   UNL     1     164.268 174.834 175.737 -0.02 +0.09    +0.328 C 
BRANCH  18  19
ATOM     19  C   UNL     1     164.345 173.306 175.685 -0.09 +0.00    +0.255 C 
ATOM     20  N   UNL     1     163.600 172.744 174.659 -0.06 +0.01    -0.280 N 
ATOM     21  H   UNL     1     163.480 173.335 173.837 +0.08 -0.01    +0.155 HD
ATOM     22  O   UNL     1     165.065 172.673 176.456 -0.16 +0.05    -0.272 OA
BRANCH  20  23
ATOM     23  C   UNL     1     163.529 171.341 174.435 -0.12 -0.01    +0.070 A 
ATOM     24  C   UNL     1     164.557 170.715 173.707 -0.23 -0.02    +0.064 A 
ATOM     25 CL   UNL     1     166.003 171.554 173.291 -0.26 +0.04    -0.082 Cl
ATOM     26  C   UNL     1     164.493 169.364 173.358 -0.35 -0.01    +0.022 A 
ATOM     27  C   UNL     1     163.398 168.602 173.744 -0.40 -0.00    +0.003 A 
ATOM     28  C   UNL     1     162.379 169.193 174.490 -0.33 -0.00    +0.022 A 
ATOM     29  C   UNL     1     162.433 170.553 174.830 -0.23 -0.01    +0.064 A 
ATOM     30 CL   UNL     1     161.025 171.209 175.595 -0.57 -0.01    -0.082 Cl
ENDBRANCH  20  23
ENDBRANCH  18  19
ENDBRANCH  17  18
ENDBRANCH   1  17
TORSDOF 7
TER
ENDMDL
