MODEL        1
USER    Run = 1
USER
USER    Estimated Free Energy of Binding    =  -4.25 kcal/mol  [=(1)+(2)+(3)-(4)]
USER
USER    (1) Final Intermolecular Energy     =  -6.34 kcal/mol
USER        vdW + Hbond + desolv Energy     =  -6.26 kcal/mol
USER        Electrostatic Energy            =  -0.08 kcal/mol
USER        Moving Ligand-Fixed Receptor    =  -6.34 kcal/mol
USER        Moving Ligand-Moving Receptor   =  +0.00 kcal/mol
USER    (2) Final Total Internal Energy     =  -3.05 kcal/mol
USER    (3) Torsional Free Energy           =  +2.09 kcal/mol
USER    (4) Unbound System's Energy         =  -3.05 kcal/mol
USER
USER
REMARK  Name = Z15883774
REMARK  8 active torsions:
REMARK  status: ('A' for Active; 'I' for Inactive)
REMARK    1  A    between atoms: C_1  and  C_2
REMARK    2  A    between atoms: C_2  and  O_3
REMARK    3  A    between atoms: C_2  and  C_19
REMARK    4  A    between atoms: O_3  and  C_4
REMARK    5  A    between atoms: C_4  and  C_6
REMARK    6  A    between atoms: C_10  and  N_12
REMARK    7  A    between atoms: N_21  and  C_22
REMARK    8  A    between atoms: C_22  and  C_23
REMARK                            x       y       z     vdW  Elec       q    Type
REMARK                         _______ _______ _______ _____ _____    ______ ____
USER                              x       y       z     vdW  Elec       q    Type
USER                           _______ _______ _______ _____ _____    ______ ____
ROOT
ATOM      1  C   UNL     1     163.892 173.282 175.952 -0.05 +0.04    +0.340 C 
ATOM      2  O   UNL     1     164.940 173.070 176.539 -0.21 +0.02    -0.245 OA
ENDROOT
BRANCH   1   3
ATOM      3  C   UNL     1     163.002 172.180 175.485 -0.17 +0.00    +0.061 A 
ATOM      4  C   UNL     1     163.473 171.101 174.720 -0.06 -0.01    +0.038 A 
ATOM      5  C   UNL     1     162.643 170.013 174.396 -0.28 -0.01    +0.045 A 
ATOM      6  C   UNL     1     161.297 170.087 174.792 -0.40 -0.00    +0.024 A 
ATOM      7  C   UNL     1     160.809 171.170 175.527 -0.38 +0.00    +0.003 A 
ATOM      8  C   UNL     1     161.662 172.207 175.886 -0.28 +0.00    +0.015 A 
BRANCH   5   9
ATOM      9  N   UNL     1     163.162 168.825 173.789 -0.25 +0.04    -0.210 N 
ATOM     10  C   UNL     1     163.621 167.726 174.484 -0.32 -0.05    +0.227 C 
ATOM     11  O   UNL     1     163.758 167.568 175.690 -0.28 +0.07    -0.275 OA
ATOM     12  C   UNL     1     163.958 166.636 173.510 -0.36 -0.03    +0.106 C 
ATOM     13  C   UNL     1     163.382 167.123 172.206 -0.08 -0.03    +0.106 C 
ATOM     14  C   UNL     1     163.188 168.590 172.430 -0.27 -0.05    +0.227 C 
ATOM     15  O   UNL     1     163.062 169.376 171.503 -0.26 +0.09    -0.275 OA
ENDBRANCH   5   9
ENDBRANCH   1   3
BRANCH   1  16
ATOM     16  O   UNL     1     163.407 174.503 175.611 -0.48 -0.30    -0.449 OA
BRANCH  16  18
ATOM     17  C   UNL     1     164.142 176.808 175.899 -0.06 +0.03    +0.062 C 
ATOM     18  C   UNL     1     164.411 175.464 175.229 -0.04 +0.05    +0.259 C 
BRANCH  18  19
ATOM     19  C   UNL     1     164.461 175.650 173.696 -0.05 -0.05    +0.254 C 
ATOM     20  N   UNL     1     163.872 174.634 172.973 -0.06 +0.08    -0.312 N 
ATOM     21  H   UNL     1     163.332 173.939 173.475 +0.07 -0.02    +0.149 HD
ATOM     22  O   UNL     1     165.045 176.587 173.158 -0.08 +0.08    -0.272 OA
BRANCH  20  23
ATOM     23  C   UNL     1     163.870 174.615 171.521 -0.08 -0.03    +0.107 C 
BRANCH  23  24
ATOM     24  C   UNL     1     165.225 174.169 170.935 -0.29 -0.00    +0.006 C 
ATOM     25  C   UNL     1     165.035 173.272 169.697 -0.43 -0.00    +0.005 C 
ATOM     26  C   UNL     1     164.484 171.890 170.046 -0.37 -0.00    +0.000 C 
ATOM     27  C   UNL     1     165.333 171.190 171.102 -0.29 -0.00    +0.000 C 
ATOM     28  C   UNL     1     165.564 172.060 172.334 -0.29 -0.00    +0.000 C 
ATOM     29  C   UNL     1     166.105 173.439 171.965 -0.16 -0.00    +0.005 C 
ENDBRANCH  23  24
ENDBRANCH  20  23
ENDBRANCH  18  19
ENDBRANCH  16  18
ENDBRANCH   1  16
TORSDOF 7
TER
ENDMDL
