MODEL        1
USER    Run = 1
USER
USER    Estimated Free Energy of Binding    =  -4.21 kcal/mol  [=(1)+(2)+(3)-(4)]
USER
USER    (1) Final Intermolecular Energy     =  -6.00 kcal/mol
USER        vdW + Hbond + desolv Energy     =  -6.06 kcal/mol
USER        Electrostatic Energy            =  +0.06 kcal/mol
USER        Moving Ligand-Fixed Receptor    =  -6.00 kcal/mol
USER        Moving Ligand-Moving Receptor   =  +0.00 kcal/mol
USER    (2) Final Total Internal Energy     =  -1.56 kcal/mol
USER    (3) Torsional Free Energy           =  +1.79 kcal/mol
USER    (4) Unbound System's Energy         =  -1.56 kcal/mol
USER
USER
REMARK  Name = Z15849736
REMARK  8 active torsions:
REMARK  status: ('A' for Active; 'I' for Inactive)
REMARK    1  A    between atoms: C_1  and  C_2
REMARK    2  A    between atoms: C_2  and  C_3
REMARK    3  A    between atoms: C_2  and  C_4
REMARK    4  A    between atoms: C_4  and  C_5
REMARK    5  A    between atoms: N_9  and  C_10
REMARK    6  A    between atoms: C_10  and  C_11
REMARK    7  A    between atoms: N_13  and  C_14
REMARK    8  A    between atoms: C_17  and  C_20
REMARK                            x       y       z     vdW  Elec       q    Type
REMARK                         _______ _______ _______ _____ _____    ______ ____
USER                              x       y       z     vdW  Elec       q    Type
USER                           _______ _______ _______ _____ _____    ______ ____
ROOT
ATOM      1  C   UNL     1     153.708 166.615 179.432 -0.26 -0.17    +0.235 C 
ATOM      2  N   UNL     1     154.883 165.988 179.031 -0.21 +0.15    -0.284 N 
ATOM      3  H   UNL     1     154.948 164.984 179.158 +0.12 -0.07    +0.155 HD
ATOM      4  O   UNL     1     153.467 167.817 179.340 -0.25 +0.28    -0.274 OA
ENDROOT
BRANCH   2   5
ATOM      5  C   UNL     1     155.962 166.605 178.358 -0.41 -0.02    +0.034 A 
ATOM      6  C   UNL     1     156.050 168.003 178.382 -0.39 -0.01    +0.024 A 
ATOM      7  C   UNL     1     157.169 168.658 177.843 -0.42 -0.01    +0.014 A 
ATOM      8  C   UNL     1     158.206 167.923 177.243 -0.37 -0.02    +0.055 A 
ATOM      9  C   UNL     1     158.075 166.535 177.153 -0.36 -0.01    +0.014 A 
ATOM     10  C   UNL     1     156.962 165.887 177.701 -0.39 -0.01    +0.024 A 
BRANCH   8  11
ATOM     11  C   UNL     1     159.451 168.615 176.740 -0.17 -0.10    +0.417 C 
ATOM     12  F   UNL     1     160.409 167.732 176.343 -0.10 +0.01    -0.166 F 
ATOM     13  F   UNL     1     160.034 169.400 177.686 -0.18 +0.04    -0.166 F 
ATOM     14  F   UNL     1     159.228 169.424 175.666 -0.12 +0.02    -0.166 F 
ENDBRANCH   8  11
ENDBRANCH   2   5
BRANCH   1  15
ATOM     15  C   UNL     1     152.685 165.674 180.065 -0.22 -0.11    +0.214 C 
BRANCH  15  19
ATOM     16  C   UNL     1     151.930 163.240 177.306 -0.14 -0.05    +0.161 C 
ATOM     17  C   UNL     1     152.832 163.864 178.377 -0.20 -0.08    +0.244 C 
ATOM     18  O   UNL     1     154.005 163.580 178.581 -0.21 +0.10    -0.273 OA
ATOM     19  N   UNL     1     152.125 164.825 179.040 -0.21 +0.08    -0.216 N 
ATOM     20  C   UNL     1     150.890 164.969 178.491 -0.15 -0.10    +0.310 C 
ATOM     21  O   UNL     1     150.071 165.843 178.715 -0.15 +0.10    -0.252 OA
ATOM     22  N   UNL     1     150.723 163.992 177.533 -0.14 +0.07    -0.288 N 
ATOM     23  H   UNL     1     149.926 164.035 176.909 +0.05 -0.03    +0.151 HD
BRANCH  16  24
ATOM     24  C   UNL     1     151.760 161.737 177.510 -0.24 -0.01    +0.034 C 
BRANCH  24  26
ATOM     25  C   UNL     1     152.488 159.773 178.980 -0.31 -0.00    +0.007 C 
ATOM     26  C   UNL     1     152.923 161.044 178.250 -0.32 +0.01    -0.015 C 
ATOM     27  C   UNL     1     154.042 160.702 177.262 -0.31 -0.00    +0.007 C 
ENDBRANCH  24  26
ENDBRANCH  16  24
ENDBRANCH  15  19
ENDBRANCH   1  15
TORSDOF 6
TER
ENDMDL
