MODEL        1
USER    Run = 1
USER
USER    Estimated Free Energy of Binding    =  -6.05 kcal/mol  [=(1)+(2)+(3)-(4)]
USER
USER    (1) Final Intermolecular Energy     =  -8.13 kcal/mol
USER        vdW + Hbond + desolv Energy     =  -8.09 kcal/mol
USER        Electrostatic Energy            =  -0.05 kcal/mol
USER        Moving Ligand-Fixed Receptor    =  -8.13 kcal/mol
USER        Moving Ligand-Moving Receptor   =  +0.00 kcal/mol
USER    (2) Final Total Internal Energy     =  -2.05 kcal/mol
USER    (3) Torsional Free Energy           =  +2.09 kcal/mol
USER    (4) Unbound System's Energy         =  -2.05 kcal/mol
USER
USER
REMARK  Name = Z15865083
REMARK  9 active torsions:
REMARK  status: ('A' for Active; 'I' for Inactive)
REMARK    1  A    between atoms: C_1  and  O_2
REMARK    2  A    between atoms: O_2  and  C_3
REMARK    3  A    between atoms: C_8  and  C_9
REMARK    4  A    between atoms: N_11  and  C_12
REMARK    5  A    between atoms: C_15  and  O_16
REMARK    6  A    between atoms: O_16  and  C_17
REMARK    7  A    between atoms: C_17  and  C_18
REMARK    8  A    between atoms: C_17  and  C_19
REMARK    9  A    between atoms: N_21  and  C_22
REMARK                            x       y       z     vdW  Elec       q    Type
REMARK                         _______ _______ _______ _____ _____    ______ ____
USER                              x       y       z     vdW  Elec       q    Type
USER                           _______ _______ _______ _____ _____    ______ ____
ROOT
ATOM      1  C   UNL     1     155.674 166.893 178.009 -0.43 -0.02    +0.034 A 
ATOM      2  C   UNL     1     156.511 165.962 177.385 -0.40 -0.01    +0.027 A 
ATOM      3  C   UNL     1     157.759 166.349 176.860 -0.36 -0.02    +0.047 A 
ATOM      4  C   UNL     1     158.170 167.679 176.934 -0.25 -0.06    +0.122 A 
ATOM      5  C   UNL     1     157.356 168.598 177.583 -0.43 -0.03    +0.047 A 
ATOM      6  C   UNL     1     156.131 168.206 178.130 -0.40 -0.02    +0.027 A 
ENDROOT
BRANCH   1   8
ATOM      7  C   UNL     1     154.019 166.272 179.773 -0.26 -0.16    +0.252 C 
ATOM      8  N   UNL     1     154.399 166.463 178.457 -0.20 +0.17    -0.281 N 
ATOM      9  H   UNL     1     153.677 166.330 177.759 +0.01 -0.11    +0.155 HD
ATOM     10  O   UNL     1     154.770 166.393 180.742 -0.31 +0.18    -0.270 OA
BRANCH   7  12
ATOM     11  C   UNL     1     151.742 165.171 179.208 -0.22 -0.05    +0.132 A 
ATOM     12  C   UNL     1     152.595 165.891 180.063 -0.26 -0.04    +0.079 A 
ATOM     13  C   UNL     1     152.092 166.346 181.300 -0.28 -0.01    +0.017 A 
ATOM     14  C   UNL     1     150.782 166.089 181.696 -0.33 -0.00    +0.001 A 
ATOM     15  C   UNL     1     149.953 165.354 180.864 -0.37 -0.00    +0.004 A 
ATOM     16  C   UNL     1     150.431 164.890 179.635 -0.26 -0.01    +0.046 A 
BRANCH  11  18
ATOM     17  C   UNL     1     152.716 163.395 177.977 -0.15 -0.09    +0.277 C 
ATOM     18  O   UNL     1     152.226 164.737 177.997 -0.11 +0.21    -0.494 OA
ENDBRANCH  11  18
ENDBRANCH   7  12
ENDBRANCH   1   8
BRANCH   4  19
ATOM     19  O   UNL     1     159.276 168.226 176.350 -0.12 +0.10    -0.480 OA
BRANCH  19  20
ATOM     20  C   UNL     1     160.280 168.794 177.189 -0.35 -0.05    +0.256 C 
ATOM     21  C   UNL     1     161.120 167.703 177.856 -0.39 -0.01    +0.062 C 
BRANCH  20  22
ATOM     22  C   UNL     1     161.228 169.649 176.313 -0.24 -0.02    +0.258 C 
ATOM     23  N   UNL     1     161.670 169.005 175.164 -0.17 +0.01    -0.282 N 
ATOM     24  H   UNL     1     161.340 168.054 175.038 +0.15 +0.01    +0.155 HD
ATOM     25  O   UNL     1     161.489 170.809 176.624 -0.30 -0.01    -0.271 OA
BRANCH  23  26
ATOM     26  C   UNL     1     162.566 169.513 174.195 -0.33 -0.00    +0.034 A 
ATOM     27  C   UNL     1     162.645 168.858 172.961 -0.33 -0.00    +0.023 A 
ATOM     28  C   UNL     1     163.504 169.326 171.956 -0.32 -0.00    +0.002 A 
ATOM     29  C   UNL     1     164.298 170.448 172.180 -0.29 -0.00    +0.000 A 
ATOM     30  C   UNL     1     164.240 171.095 173.409 -0.23 -0.00    +0.002 A 
ATOM     31  C   UNL     1     163.380 170.629 174.409 -0.19 -0.00    +0.023 A 
ENDBRANCH  23  26
ENDBRANCH  20  22
ENDBRANCH  19  20
ENDBRANCH   4  19
TORSDOF 7
TER
ENDMDL
