MODEL        1
USER    Run = 1
USER
USER    Estimated Free Energy of Binding    =  -5.42 kcal/mol  [=(1)+(2)+(3)-(4)]
USER
USER    (1) Final Intermolecular Energy     =  -6.62 kcal/mol
USER        vdW + Hbond + desolv Energy     =  -6.64 kcal/mol
USER        Electrostatic Energy            =  +0.02 kcal/mol
USER        Moving Ligand-Fixed Receptor    =  -6.62 kcal/mol
USER        Moving Ligand-Moving Receptor   =  +0.00 kcal/mol
USER    (2) Final Total Internal Energy     =  -0.57 kcal/mol
USER    (3) Torsional Free Energy           =  +1.19 kcal/mol
USER    (4) Unbound System's Energy         =  -0.57 kcal/mol
USER
USER
REMARK  Name = Z15849082
REMARK  6 active torsions:
REMARK  status: ('A' for Active; 'I' for Inactive)
REMARK    1  A    between atoms: C_1  and  C_2
REMARK    2  A    between atoms: C_2  and  C_3
REMARK    3  A    between atoms: C_2  and  C_4
REMARK    4  A    between atoms: C_4  and  C_5
REMARK    5  A    between atoms: N_9  and  C_10
REMARK    6  A    between atoms: C_10  and  C_11
REMARK                            x       y       z     vdW  Elec       q    Type
REMARK                         _______ _______ _______ _____ _____    ______ ____
USER                              x       y       z     vdW  Elec       q    Type
USER                           _______ _______ _______ _____ _____    ______ ____
ROOT
ATOM      1  C   UNL     1     162.533 168.107 174.911 -0.24 -0.02    +0.161 C 
ATOM      2  C   UNL     1     161.423 169.075 175.346 -0.15 -0.01    +0.244 C 
ATOM      3  O   UNL     1     160.919 169.921 174.621 -0.35 -0.00    -0.273 OA
ATOM      4  N   UNL     1     161.051 168.758 176.623 -0.31 +0.02    -0.219 N 
ATOM      5  C   UNL     1     161.723 167.656 177.051 -0.18 -0.03    +0.309 C 
ATOM      6  O   UNL     1     161.509 167.009 178.061 -0.36 +0.05    -0.252 OA
ATOM      7  N   UNL     1     162.671 167.324 176.112 -0.24 +0.04    -0.288 N 
ATOM      8  H   UNL     1     163.154 166.439 176.181 +0.11 -0.03    +0.151 HD
ENDROOT
BRANCH   1   9
ATOM      9  C   UNL     1     163.821 168.814 174.491 -0.38 -0.01    +0.034 C 
BRANCH   9  11
ATOM     10  C   UNL     1     162.715 168.609 172.196 -0.44 -0.00    +0.007 C 
ATOM     11  C   UNL     1     163.987 168.970 172.963 -0.42 +0.00    -0.015 C 
ATOM     12  C   UNL     1     164.409 170.399 172.613 -0.37 -0.00    +0.007 C 
ENDBRANCH   9  11
ENDBRANCH   1   9
BRANCH   4  13
ATOM     13  C   UNL     1     159.947 169.356 177.343 -0.29 -0.04    +0.173 C 
BRANCH  13  14
ATOM     14  C   UNL     1     158.781 168.384 177.426 -0.45 -0.02    +0.067 C 
ATOM     15  N   UNL     1     157.673 168.825 178.123 -0.24 +0.11    -0.226 NA
ATOM     16  C   UNL     1     156.678 168.006 178.171 -0.26 -0.10    +0.180 A 
ATOM     17  N   UNL     1     156.624 166.750 177.610 -0.27 +0.13    -0.262 N 
ATOM     18  C   UNL     1     155.438 166.078 177.822 -0.25 -0.05    +0.104 A 
ATOM     19  C   UNL     1     154.542 166.770 178.533 -0.33 -0.04    +0.067 A 
ATOM     20  C   UNL     1     157.689 166.265 176.896 -0.25 -0.11    +0.259 C 
ATOM     21  O   UNL     1     157.738 165.169 176.345 -0.20 +0.12    -0.267 OA
ATOM     22  S   UNL     1     155.155 168.338 178.983 -0.50 +0.05    -0.058 S 
ATOM     23  C   UNL     1     158.840 167.189 176.813 -0.29 -0.03    +0.095 C 
ENDBRANCH  13  14
ENDBRANCH   4  13
TORSDOF 4
TER
ENDMDL
