MODEL        1
USER    Run = 1
USER
USER    Estimated Free Energy of Binding    =  -4.63 kcal/mol  [=(1)+(2)+(3)-(4)]
USER
USER    (1) Final Intermolecular Energy     =  -6.12 kcal/mol
USER        vdW + Hbond + desolv Energy     =  -5.93 kcal/mol
USER        Electrostatic Energy            =  -0.19 kcal/mol
USER        Moving Ligand-Fixed Receptor    =  -6.12 kcal/mol
USER        Moving Ligand-Moving Receptor   =  +0.00 kcal/mol
USER    (2) Final Total Internal Energy     =  -1.54 kcal/mol
USER    (3) Torsional Free Energy           =  +1.49 kcal/mol
USER    (4) Unbound System's Energy         =  -1.54 kcal/mol
USER
USER
REMARK  Name = Z15836186
REMARK  6 active torsions:
REMARK  status: ('A' for Active; 'I' for Inactive)
REMARK    1  A    between atoms: C_1  and  N_2
REMARK    2  A    between atoms: C_3  and  S_4
REMARK    3  A    between atoms: S_4  and  C_5
REMARK    4  A    between atoms: C_5  and  C_6
REMARK    5  A    between atoms: C_12  and  C_16
REMARK    6  A    between atoms: C_22  and  C_23
REMARK                            x       y       z     vdW  Elec       q    Type
REMARK                         _______ _______ _______ _____ _____    ______ ____
USER                              x       y       z     vdW  Elec       q    Type
USER                           _______ _______ _______ _____ _____    ______ ____
ROOT
ATOM      1  C   UNL     1     164.919 171.593 170.479 -0.17 -0.02    +0.173 C 
ENDROOT
BRANCH   1   2
ATOM      2  C   UNL     1     165.474 173.007 170.453 -0.16 +0.03    +0.229 C 
ATOM      3  N   UNL     1     165.017 173.802 171.489 -0.08 +0.03    -0.269 N 
ATOM      4  H   UNL     1     164.434 173.385 172.210 +0.09 -0.03    +0.156 HD
ATOM      5  C   UNL     1     165.340 175.161 171.656 -0.07 -0.02    +0.143 A 
ATOM      6  C   UNL     1     164.954 175.820 172.827 -0.07 -0.02    +0.082 A 
ATOM      7 CL   UNL     1     164.073 175.026 174.079 -0.27 +0.00    -0.080 Cl
ATOM      8  C   UNL     1     165.314 177.159 173.003 -0.04 -0.01    +0.037 A 
ATOM      9  C   UNL     1     166.043 177.820 172.007 -0.05 -0.01    +0.074 A 
ATOM     10  C   UNL     1     166.354 177.100 170.867 -0.09 -0.01    +0.125 A 
ATOM     11  N   UNL     1     166.013 175.806 170.680 -0.11 +0.02    -0.238 NA
ATOM     12  O   UNL     1     166.256 173.343 169.565 -0.80 -0.17    -0.275 OA
BRANCH   9  13
ATOM     13  C   UNL     1     166.487 179.241 172.156 +0.04 -0.06    +0.419 C 
ATOM     14  F   UNL     1     165.704 180.103 171.452 -0.01 +0.01    -0.166 F 
ATOM     15  F   UNL     1     167.756 179.437 171.709 +0.01 +0.02    -0.166 F 
ATOM     16  F   UNL     1     166.471 179.686 173.442 +0.03 +0.02    -0.166 F 
ENDBRANCH   9  13
ENDBRANCH   1   2
BRANCH   1  17
ATOM     17  S   UNL     1     165.597 170.685 171.895 -0.33 +0.02    -0.077 S 
BRANCH  17  23
ATOM     18  C   UNL     1     163.027 168.837 172.499 -0.33 -0.04    +0.153 C 
ATOM     19  N   UNL     1     163.364 169.974 173.316 -0.13 +0.07    -0.305 N 
ATOM     20  C   UNL     1     162.681 170.441 174.425 -0.14 -0.02    +0.165 A 
ATOM     21  N   UNL     1     163.151 171.652 174.697 -0.16 +0.01    -0.128 NA
ATOM     22  N   UNL     1     164.184 171.939 173.843 -0.16 +0.02    -0.122 NA
ATOM     23  C   UNL     1     164.346 170.896 173.065 -0.12 -0.05    +0.192 A 
BRANCH  20  24
ATOM     24  C   UNL     1     161.595 169.781 175.171 -0.40 -0.00    +0.019 A 
ATOM     25  C   UNL     1     161.789 168.660 175.994 -0.31 -0.00    +0.013 A 
ATOM     26  C   UNL     1     160.721 168.079 176.690 -0.42 -0.00    +0.021 A 
ATOM     27  C   UNL     1     159.447 168.628 176.594 -0.40 -0.01    +0.041 A 
ATOM     28 CL   UNL     1     158.142 167.921 177.461 -0.57 +0.04    -0.084 Cl
ATOM     29  C   UNL     1     159.232 169.756 175.808 -0.23 -0.00    +0.021 A 
ATOM     30  C   UNL     1     160.301 170.326 175.105 -0.45 +0.00    +0.013 A 
ENDBRANCH  20  24
ENDBRANCH  17  23
ENDBRANCH   1  17
TORSDOF 5
TER
ENDMDL
