MODEL        1
USER    Run = 1
USER
USER    Estimated Free Energy of Binding    =  -5.18 kcal/mol  [=(1)+(2)+(3)-(4)]
USER
USER    (1) Final Intermolecular Energy     =  -6.37 kcal/mol
USER        vdW + Hbond + desolv Energy     =  -6.37 kcal/mol
USER        Electrostatic Energy            =  -0.00 kcal/mol
USER        Moving Ligand-Fixed Receptor    =  -6.37 kcal/mol
USER        Moving Ligand-Moving Receptor   =  +0.00 kcal/mol
USER    (2) Final Total Internal Energy     =  -0.57 kcal/mol
USER    (3) Torsional Free Energy           =  +1.19 kcal/mol
USER    (4) Unbound System's Energy         =  -0.57 kcal/mol
USER
USER
REMARK  Name = Z15860573
REMARK  6 active torsions:
REMARK  status: ('A' for Active; 'I' for Inactive)
REMARK    1  A    between atoms: C_1  and  C_2
REMARK    2  A    between atoms: C_2  and  O_3
REMARK    3  A    between atoms: C_2  and  C_14
REMARK    4  A    between atoms: O_3  and  C_4
REMARK    5  A    between atoms: C_7  and  N_8
REMARK    6  A    between atoms: C_9  and  C_11
REMARK                            x       y       z     vdW  Elec       q    Type
REMARK                         _______ _______ _______ _____ _____    ______ ____
USER                              x       y       z     vdW  Elec       q    Type
USER                           _______ _______ _______ _____ _____    ______ ____
ROOT
ATOM      1  C   UNL     1     156.621 165.800 175.973 -0.35 -0.04    +0.062 C 
ATOM      2  C   UNL     1     156.818 165.664 177.492 -0.27 -0.11    +0.256 C 
ENDROOT
BRANCH   2   3
ATOM      3  C   UNL     1     155.743 166.466 178.269 -0.29 -0.13    +0.260 C 
ATOM      4  N   UNL     1     154.603 165.777 178.649 -0.21 +0.14    -0.268 N 
ATOM      5  C   UNL     1     153.613 166.276 179.517 -0.33 -0.03    +0.040 A 
ATOM      6  C   UNL     1     152.585 165.347 179.667 -0.30 +0.01    -0.025 A 
ATOM      7  C   UNL     1     151.494 165.611 180.483 -0.31 -0.00    +0.005 A 
ATOM      8  C   UNL     1     151.450 166.832 181.160 -0.25 -0.00    +0.000 A 
ATOM      9  C   UNL     1     152.488 167.760 181.020 -0.29 -0.00    +0.002 A 
ATOM     10  C   UNL     1     152.849 164.109 178.873 -0.29 -0.02    +0.056 C 
ATOM     11  C   UNL     1     153.579 167.485 180.193 -0.29 -0.02    +0.024 A 
ATOM     12  C   UNL     1     154.203 164.425 178.218 -0.20 -0.05    +0.118 C 
ATOM     13  O   UNL     1     155.941 167.656 178.533 -0.39 +0.16    -0.271 OA
ENDBRANCH   2   3
BRANCH   2  14
ATOM     14  O   UNL     1     158.192 165.841 177.844 -0.06 +0.16    -0.480 OA
BRANCH  14  15
ATOM     15  C   UNL     1     158.823 166.994 177.463 -0.02 -0.04    +0.122 A 
ATOM     16  C   UNL     1     160.218 166.955 177.467 -0.13 -0.01    +0.047 A 
ATOM     17  C   UNL     1     160.965 168.066 177.051 -0.44 -0.00    +0.027 A 
ATOM     18  C   UNL     1     160.323 169.242 176.652 -0.45 -0.00    +0.034 A 
ATOM     19  C   UNL     1     158.936 169.285 176.699 -0.28 -0.01    +0.027 A 
ATOM     20  C   UNL     1     158.190 168.175 177.102 -0.41 -0.02    +0.047 A 
BRANCH  18  21
ATOM     21  N   UNL     1     161.109 170.321 176.198 -0.23 +0.01    -0.286 N 
ATOM     22  H   UNL     1     161.085 171.159 176.765 +0.10 +0.02    +0.155 HD
ATOM     23  C   UNL     1     161.867 170.352 175.039 -0.27 -0.01    +0.214 C 
ATOM     24  C   UNL     1     162.700 171.598 174.897 -0.13 -0.00    +0.109 C 
ATOM     25  O   UNL     1     161.900 169.498 174.159 -0.28 +0.02    -0.276 OA
ENDBRANCH  18  21
ENDBRANCH  14  15
ENDBRANCH   2  14
TORSDOF 4
TER
ENDMDL
