MODEL        1
USER    Run = 1
USER
USER    Estimated Free Energy of Binding    =  -6.77 kcal/mol  [=(1)+(2)+(3)-(4)]
USER
USER    (1) Final Intermolecular Energy     =  -8.26 kcal/mol
USER        vdW + Hbond + desolv Energy     =  -8.13 kcal/mol
USER        Electrostatic Energy            =  -0.13 kcal/mol
USER        Moving Ligand-Fixed Receptor    =  -8.26 kcal/mol
USER        Moving Ligand-Moving Receptor   =  +0.00 kcal/mol
USER    (2) Final Total Internal Energy     =  -0.61 kcal/mol
USER    (3) Torsional Free Energy           =  +1.49 kcal/mol
USER    (4) Unbound System's Energy         =  -0.61 kcal/mol
USER
USER
REMARK  Name = Z15834906
REMARK  6 active torsions:
REMARK  status: ('A' for Active; 'I' for Inactive)
REMARK    1  A    between atoms: C_1  and  N_2
REMARK    2  A    between atoms: C_3  and  S_4
REMARK    3  A    between atoms: S_4  and  C_5
REMARK    4  A    between atoms: C_5  and  C_6
REMARK    5  A    between atoms: N_8  and  C_9
REMARK    6  A    between atoms: C_21  and  C_22
REMARK                            x       y       z     vdW  Elec       q    Type
REMARK                         _______ _______ _______ _____ _____    ______ ____
USER                              x       y       z     vdW  Elec       q    Type
USER                           _______ _______ _______ _____ _____    ______ ____
ROOT
ATOM      1  C   UNL     1     160.081 168.914 177.209 -0.43 -0.04    +0.173 C 
ENDROOT
BRANCH   1   2
ATOM      2  C   UNL     1     160.643 169.561 175.939 -0.33 -0.01    +0.228 C 
ATOM      3  N   UNL     1     161.913 169.122 175.561 -0.17 +0.02    -0.285 N 
ATOM      4  H   UNL     1     162.332 168.414 176.156 +0.11 -0.01    +0.155 HD
ATOM      5  O   UNL     1     159.993 170.416 175.339 -0.41 +0.00    -0.275 OA
BRANCH   3   6
ATOM      6  C   UNL     1     162.681 169.566 174.486 -0.31 -0.01    +0.035 A 
ATOM      7  C   UNL     1     163.351 170.735 174.475 -0.17 -0.01    +0.050 A 
ATOM      8  C   UNL     1     164.139 171.092 173.294 -0.15 -0.02    +0.083 A 
ATOM      9  C   UNL     1     164.181 170.170 172.137 -0.24 -0.02    +0.081 A 
ATOM     10  N   UNL     1     164.926 170.664 171.219 -0.17 +0.04    -0.160 NA
ATOM     11  C   UNL     1     165.351 171.870 171.764 -0.07 -0.04    +0.348 C 
ATOM     12  O   UNL     1     166.093 172.639 171.174 -0.25 -0.06    -0.248 OA
ATOM     13  C   UNL     1     163.429 168.917 172.199 -0.34 -0.01    +0.029 A 
ATOM     14  N   UNL     1     164.863 172.124 173.041 -0.14 +0.04    -0.160 NA
ATOM     15  C   UNL     1     162.731 168.672 173.322 -0.31 -0.00    +0.025 A 
ENDBRANCH   3   6
ENDBRANCH   1   2
BRANCH   1  16
ATOM     16  S   UNL     1     159.084 167.467 176.736 -0.47 +0.02    -0.077 S 
BRANCH  16  22
ATOM     17  C   UNL     1     156.776 165.337 177.476 -0.32 -0.07    +0.153 C 
ATOM     18  N   UNL     1     156.691 166.720 177.869 -0.23 +0.15    -0.305 N 
ATOM     19  C   UNL     1     155.639 167.324 178.543 -0.32 -0.10    +0.165 A 
ATOM     20  N   UNL     1     155.907 168.622 178.603 -0.33 +0.09    -0.128 NA
ATOM     21  N   UNL     1     157.127 168.865 178.015 -0.39 +0.07    -0.122 NA
ATOM     22  C   UNL     1     157.590 167.720 177.581 -0.23 -0.10    +0.192 A 
BRANCH  19  23
ATOM     23  C   UNL     1     154.406 166.705 179.077 -0.40 -0.01    +0.019 A 
ATOM     24  C   UNL     1     153.953 165.426 178.712 -0.32 -0.01    +0.013 A 
ATOM     25  C   UNL     1     152.799 164.871 179.287 -0.30 -0.01    +0.021 A 
ATOM     26  C   UNL     1     152.090 165.579 180.252 -0.28 -0.02    +0.041 A 
ATOM     27 CL   UNL     1     150.699 164.877 180.982 -0.56 +0.01    -0.084 Cl
ATOM     28  C   UNL     1     152.518 166.844 180.639 -0.28 -0.01    +0.021 A 
ATOM     29  C   UNL     1     153.667 167.398 180.054 -0.33 -0.01    +0.013 A 
ENDBRANCH  19  23
ENDBRANCH  16  22
ENDBRANCH   1  16
TORSDOF 5
TER
ENDMDL
