MODEL        1
USER    Run = 1
USER
USER    Estimated Free Energy of Binding    =  -6.37 kcal/mol  [=(1)+(2)+(3)-(4)]
USER
USER    (1) Final Intermolecular Energy     =  -8.16 kcal/mol
USER        vdW + Hbond + desolv Energy     =  -8.14 kcal/mol
USER        Electrostatic Energy            =  -0.02 kcal/mol
USER        Moving Ligand-Fixed Receptor    =  -8.16 kcal/mol
USER        Moving Ligand-Moving Receptor   =  +0.00 kcal/mol
USER    (2) Final Total Internal Energy     =  -0.90 kcal/mol
USER    (3) Torsional Free Energy           =  +1.79 kcal/mol
USER    (4) Unbound System's Energy         =  -0.90 kcal/mol
USER
USER
REMARK  Name = Z15808284
REMARK  6 active torsions:
REMARK  status: ('A' for Active; 'I' for Inactive)
REMARK    1  A    between atoms: C_2  and  C_3
REMARK    2  A    between atoms: C_3  and  N_4
REMARK    3  A    between atoms: C_5  and  S_6
REMARK    4  A    between atoms: S_6  and  C_7
REMARK    5  A    between atoms: C_7  and  C_8
REMARK    6  A    between atoms: C_20  and  C_21
REMARK                            x       y       z     vdW  Elec       q    Type
REMARK                         _______ _______ _______ _____ _____    ______ ____
USER                              x       y       z     vdW  Elec       q    Type
USER                           _______ _______ _______ _____ _____    ______ ____
ROOT
ATOM      1  N   UNL     1     162.126 168.956 175.425 -0.14 +0.03    -0.298 N 
ATOM      2  C   UNL     1     162.426 170.091 174.679 -0.18 -0.02    +0.165 A 
ATOM      3  N   UNL     1     161.433 170.952 174.867 -0.31 -0.00    -0.128 NA
ATOM      4  N   UNL     1     160.485 170.397 175.686 -0.41 +0.00    -0.122 NA
ATOM      5  C   UNL     1     160.902 169.202 176.019 -0.26 -0.01    +0.193 A 
ENDROOT
BRANCH   2   6
ATOM      6  C   UNL     1     163.598 170.415 173.828 -0.25 -0.00    +0.019 A 
ATOM      7  C   UNL     1     163.764 170.015 172.495 -0.28 -0.00    +0.012 A 
ATOM      8  C   UNL     1     164.843 170.477 171.721 -0.26 -0.00    +0.001 A 
ATOM      9  C   UNL     1     165.769 171.364 172.257 -0.25 -0.00    +0.000 A 
ATOM     10  C   UNL     1     165.636 171.770 173.578 -0.20 -0.00    +0.001 A 
ATOM     11  C   UNL     1     164.568 171.296 174.351 -0.20 -0.00    +0.012 A 
ENDBRANCH   2   6
BRANCH   1  12
ATOM     12  C   UNL     1     162.920 167.753 175.594 -0.29 -0.02    +0.152 C 
BRANCH  12  14
ATOM     13  C   UNL     1     164.527 167.182 173.757 -0.36 -0.00    +0.005 C 
ATOM     14  C   UNL     1     163.298 167.115 174.289 -0.37 +0.00    -0.013 C 
ENDBRANCH  12  14
ENDBRANCH   1  12
BRANCH   5  15
ATOM     15  S   UNL     1     160.064 168.098 177.072 -0.64 +0.02    -0.080 S 
BRANCH  15  16
ATOM     16  C   UNL     1     158.396 168.849 177.171 -0.39 -0.06    +0.133 C 
BRANCH  16  17
ATOM     17  C   UNL     1     157.320 167.802 177.470 -0.50 -0.03    +0.059 C 
ATOM     18  N   UNL     1     156.249 168.224 178.237 -0.35 +0.14    -0.227 NA
ATOM     19  C   UNL     1     155.369 167.329 178.531 -0.31 -0.11    +0.180 A 
ATOM     20  N   UNL     1     155.396 166.004 178.163 -0.23 +0.13    -0.262 N 
ATOM     21  C   UNL     1     154.323 165.257 178.616 -0.23 -0.05    +0.104 A 
ATOM     22  C   UNL     1     153.440 165.959 179.336 -0.29 -0.04    +0.067 A 
ATOM     23  C   UNL     1     156.434 165.514 177.413 -0.25 -0.12    +0.259 C 
ATOM     24  O   UNL     1     156.563 164.349 177.043 -0.25 +0.13    -0.267 OA
ATOM     25  S   UNL     1     153.924 167.627 179.487 -0.50 +0.05    -0.058 S 
ATOM     26  C   UNL     1     157.462 166.526 177.063 -0.43 -0.04    +0.095 C 
ENDBRANCH  16  17
ENDBRANCH  15  16
ENDBRANCH   5  15
TORSDOF 6
TER
ENDMDL
