MODEL        1
USER    Run = 1
USER
USER    Estimated Free Energy of Binding    =  -6.58 kcal/mol  [=(1)+(2)+(3)-(4)]
USER
USER    (1) Final Intermolecular Energy     =  -7.78 kcal/mol
USER        vdW + Hbond + desolv Energy     =  -7.78 kcal/mol
USER        Electrostatic Energy            =  +0.00 kcal/mol
USER        Moving Ligand-Fixed Receptor    =  -7.78 kcal/mol
USER        Moving Ligand-Moving Receptor   =  +0.00 kcal/mol
USER    (2) Final Total Internal Energy     =  -0.57 kcal/mol
USER    (3) Torsional Free Energy           =  +1.19 kcal/mol
USER    (4) Unbound System's Energy         =  -0.57 kcal/mol
USER
USER
REMARK  Name = Z15834858
REMARK  6 active torsions:
REMARK  status: ('A' for Active; 'I' for Inactive)
REMARK    1  A    between atoms: C_1  and  C_2
REMARK    2  A    between atoms: C_2  and  S_3
REMARK    3  A    between atoms: C_2  and  C_17
REMARK    4  A    between atoms: S_3  and  C_4
REMARK    5  A    between atoms: C_7  and  C_8
REMARK    6  A    between atoms: N_15  and  C_16
REMARK                            x       y       z     vdW  Elec       q    Type
REMARK                         _______ _______ _______ _____ _____    ______ ____
USER                              x       y       z     vdW  Elec       q    Type
USER                           _______ _______ _______ _____ _____    ______ ____
ROOT
ATOM      1  C   UNL     1     158.355 167.848 177.382 -0.19 -0.08    +0.192 A 
ATOM      2  N   UNL     1     157.513 166.810 177.720 -0.17 +0.13    -0.305 N 
ATOM      3  C   UNL     1     157.753 165.413 177.457 -0.31 -0.06    +0.153 C 
ATOM      4  C   UNL     1     156.352 167.385 178.224 -0.33 -0.09    +0.165 A 
ATOM      5  N   UNL     1     156.514 168.700 178.155 -0.34 +0.08    -0.128 NA
ATOM      6  N   UNL     1     157.767 168.987 177.642 -0.44 +0.06    -0.122 NA
ENDROOT
BRANCH   4   7
ATOM      7  C   UNL     1     155.109 166.712 178.680 -0.43 -0.01    +0.019 A 
ATOM      8  C   UNL     1     154.688 165.451 178.227 -0.28 -0.01    +0.013 A 
ATOM      9  C   UNL     1     153.468 164.886 178.632 -0.31 -0.01    +0.021 A 
ATOM     10  C   UNL     1     152.669 165.550 179.552 -0.28 -0.02    +0.041 A 
ATOM     11 CL   UNL     1     151.175 164.857 180.048 -0.46 +0.02    -0.084 Cl
ATOM     12  C   UNL     1     153.088 166.767 180.076 -0.32 -0.02    +0.021 A 
ATOM     13  C   UNL     1     154.296 167.340 179.642 -0.37 -0.01    +0.013 A 
ENDBRANCH   4   7
BRANCH   1  14
ATOM     14  S   UNL     1     159.953 167.582 176.758 -0.45 +0.01    -0.078 S 
BRANCH  14  16
ATOM     15  C   UNL     1     159.607 170.091 175.571 -0.44 -0.00    +0.024 C 
ATOM     16  C   UNL     1     160.635 169.219 176.298 -0.46 -0.01    +0.081 C 
BRANCH  16  17
ATOM     17  C   UNL     1     161.876 169.034 175.405 -0.32 +0.00    -0.034 A 
ATOM     18  C   UNL     1     162.303 170.033 174.511 -0.34 -0.00    +0.005 A 
ATOM     19  C   UNL     1     163.445 169.859 173.719 -0.32 -0.00    +0.000 A 
ATOM     20  C   UNL     1     164.185 168.684 173.813 -0.42 -0.00    +0.000 A 
ATOM     21  C   UNL     1     163.780 167.684 174.693 -0.42 -0.00    +0.000 A 
ATOM     22  C   UNL     1     162.634 167.852 175.485 -0.37 -0.00    +0.005 A 
ENDBRANCH  16  17
ENDBRANCH  14  16
ENDBRANCH   1  14
TORSDOF 4
TER
ENDMDL
