MODEL        1
USER    Run = 1
USER
USER    Estimated Free Energy of Binding    =  -3.55 kcal/mol  [=(1)+(2)+(3)-(4)]
USER
USER    (1) Final Intermolecular Energy     =  -5.34 kcal/mol
USER        vdW + Hbond + desolv Energy     =  -5.38 kcal/mol
USER        Electrostatic Energy            =  +0.04 kcal/mol
USER        Moving Ligand-Fixed Receptor    =  -5.34 kcal/mol
USER        Moving Ligand-Moving Receptor   =  +0.00 kcal/mol
USER    (2) Final Total Internal Energy     =  -2.86 kcal/mol
USER    (3) Torsional Free Energy           =  +1.79 kcal/mol
USER    (4) Unbound System's Energy         =  -2.86 kcal/mol
USER
USER
REMARK  Name = Z15842310
REMARK  9 active torsions:
REMARK  status: ('A' for Active; 'I' for Inactive)
REMARK    1  A    between atoms: C_1  and  C_2
REMARK    2  A    between atoms: C_2  and  C_3
REMARK    3  A    between atoms: C_2  and  C_4
REMARK    4  A    between atoms: C_8  and  C_9
REMARK    5  A    between atoms: C_10  and  N_11
REMARK    6  A    between atoms: C_12  and  C_14
REMARK    7  A    between atoms: C_14  and  O_15
REMARK    8  A    between atoms: O_15  and  C_16
REMARK    9  A    between atoms: C_16  and  C_18
REMARK                            x       y       z     vdW  Elec       q    Type
REMARK                         _______ _______ _______ _____ _____    ______ ____
USER                              x       y       z     vdW  Elec       q    Type
USER                           _______ _______ _______ _____ _____    ______ ____
ROOT
ATOM      1  N   UNL     1     162.558 170.094 175.207 -0.02 +0.03    -0.282 N 
ATOM      2  H   UNL     1     163.326 170.754 175.202 +0.11 -0.03    +0.155 HD
ATOM      3  C   UNL     1     161.316 170.707 175.114 -0.26 +0.00    +0.255 C 
ATOM      4  O   UNL     1     160.293 170.197 174.665 -0.40 -0.01    -0.272 OA
ENDROOT
BRANCH   1   6
ATOM      5  C   UNL     1     162.592 167.633 175.502 -0.36 +0.00    -0.023 A 
ATOM      6  C   UNL     1     162.841 168.794 174.731 -0.30 -0.01    +0.040 A 
ATOM      7  C   UNL     1     163.456 168.688 173.459 -0.37 +0.01    -0.029 A 
ATOM      8  C   UNL     1     163.748 169.890 172.597 -0.35 -0.01    +0.045 C 
ATOM      9  C   UNL     1     163.755 167.420 172.939 -0.26 -0.00    +0.005 A 
ATOM     10  C   UNL     1     163.528 166.277 173.692 -0.22 -0.00    +0.001 A 
ATOM     11  C   UNL     1     162.979 166.385 174.966 +0.21 -0.00    +0.006 A 
BRANCH   5  13
ATOM     12  C   UNL     1     160.428 167.940 176.721 -0.49 -0.00    +0.012 C 
ATOM     13  C   UNL     1     161.926 167.641 176.874 -0.40 -0.00    +0.015 C 
ATOM     14  C   UNL     1     162.134 166.347 177.669 -0.39 -0.00    +0.012 C 
ENDBRANCH   5  13
ENDBRANCH   1   6
BRANCH   3  15
ATOM     15  C   UNL     1     161.323 172.151 175.617 -0.03 +0.10    +0.328 C 
BRANCH  15  16
ATOM     16  O   UNL     1     162.431 172.412 176.492 -0.14 -0.09    -0.450 OA
BRANCH  16  17
ATOM     17  C   UNL     1     163.060 173.603 176.299 +0.03 +0.19    +0.375 C 
ATOM     18  O   UNL     1     163.044 174.531 177.094 -0.67 -0.19    -0.241 OA
BRANCH  17  19
ATOM     19  C   UNL     1     163.708 173.659 175.008 -0.05 +0.03    +0.213 A 
ATOM     20  O   UNL     1     164.407 172.590 174.503 -0.01 +0.07    -0.448 OA
ATOM     21  C   UNL     1     164.875 172.962 173.274 -0.06 -0.03    +0.136 A 
ATOM     22  C   UNL     1     164.473 174.258 172.975 -0.13 -0.00    +0.021 A 
ATOM     23  C   UNL     1     164.843 174.820 171.742 -0.17 -0.00    +0.012 A 
ATOM     24  C   UNL     1     165.610 174.054 170.857 -0.24 +0.00    +0.001 A 
ATOM     25  C   UNL     1     166.005 172.755 171.193 -0.11 +0.00    +0.004 A 
ATOM     26  C   UNL     1     165.645 172.177 172.417 -0.18 -0.01    +0.047 A 
ATOM     27  C   UNL     1     163.734 174.698 174.095 -0.13 -0.00    +0.065 A 
ENDBRANCH  17  19
ENDBRANCH  16  17
ENDBRANCH  15  16
ENDBRANCH   3  15
TORSDOF 6
TER
ENDMDL
