MODEL        1
USER    Run = 1
USER
USER    Estimated Free Energy of Binding    =  -5.25 kcal/mol  [=(1)+(2)+(3)-(4)]
USER
USER    (1) Final Intermolecular Energy     =  -6.74 kcal/mol
USER        vdW + Hbond + desolv Energy     =  -6.71 kcal/mol
USER        Electrostatic Energy            =  -0.03 kcal/mol
USER        Moving Ligand-Fixed Receptor    =  -6.74 kcal/mol
USER        Moving Ligand-Moving Receptor   =  +0.00 kcal/mol
USER    (2) Final Total Internal Energy     =  -0.77 kcal/mol
USER    (3) Torsional Free Energy           =  +1.49 kcal/mol
USER    (4) Unbound System's Energy         =  -0.77 kcal/mol
USER
USER
REMARK  Name = Z15832050
REMARK  6 active torsions:
REMARK  status: ('A' for Active; 'I' for Inactive)
REMARK    1  A    between atoms: C_1  and  O_2
REMARK    2  A    between atoms: O_2  and  C_3
REMARK    3  A    between atoms: C_3  and  C_5
REMARK    4  A    between atoms: C_11  and  C_13
REMARK    5  A    between atoms: C_13  and  O_14
REMARK    6  A    between atoms: O_14  and  C_15
REMARK                            x       y       z     vdW  Elec       q    Type
REMARK                         _______ _______ _______ _____ _____    ______ ____
USER                              x       y       z     vdW  Elec       q    Type
USER                           _______ _______ _______ _____ _____    ______ ____
ROOT
ATOM      1  C   UNL     1     159.439 168.525 177.194 -0.27 -0.09    +0.324 C 
ENDROOT
BRANCH   1   6
ATOM      2  C   UNL     1     163.919 168.616 174.631 -0.30 -0.03    +0.101 C 
ATOM      3  C   UNL     1     163.295 167.785 175.764 -0.12 -0.01    +0.033 C 
ATOM      4  C   UNL     1     161.783 167.619 175.596 -0.02 -0.01    +0.108 C 
ATOM      5  N   UNL     1     161.144 168.919 175.399 -0.06 +0.01    -0.299 N 
ATOM      6  C   UNL     1     159.949 169.306 175.986 -0.25 -0.02    +0.253 C 
ATOM      7  O   UNL     1     159.335 170.313 175.616 -0.34 +0.02    -0.272 OA
ATOM      8  C   UNL     1     161.670 169.725 174.302 -0.31 -0.00    +0.108 C 
ATOM      9  C   UNL     1     163.170 169.944 174.473 -0.29 -0.01    +0.033 C 
BRANCH   2  10
ATOM     10  C   UNL     1     163.949 167.828 173.329 -0.17 -0.07    +0.310 C 
ATOM     11  O   UNL     1     163.506 168.229 172.261 -0.29 +0.06    -0.251 OA
BRANCH  10  13
ATOM     12  C   UNL     1     163.787 165.536 172.906 -0.21 -0.10    +0.280 C 
ATOM     13  O   UNL     1     164.509 166.603 173.524 -0.18 +0.15    -0.468 OA
ENDBRANCH  10  13
ENDBRANCH   2  10
ENDBRANCH   1   6
BRANCH   1  14
ATOM     14  O   UNL     1     158.543 167.482 176.841 -0.13 +0.18    -0.482 OA
BRANCH  14  15
ATOM     15  C   UNL     1     157.337 167.479 177.507 -0.33 -0.07    +0.136 A 
ATOM     16  C   UNL     1     156.598 166.279 177.548 -0.39 -0.03    +0.067 A 
ATOM     17 BR   UNL     1     157.350 164.719 176.725 -0.65 +0.02    -0.046 Br
ATOM     18  C   UNL     1     155.333 166.209 178.206 -0.40 +0.00    -0.000 A 
ATOM     19  C   UNL     1     154.846 167.380 178.840 -0.42 +0.01    -0.017 A 
ATOM     20  C   UNL     1     153.620 167.382 179.519 -0.33 -0.01    +0.008 A 
ATOM     21  C   UNL     1     152.835 166.235 179.574 -0.30 -0.00    +0.001 A 
ATOM     22  C   UNL     1     153.274 165.076 178.951 -0.33 -0.00    +0.001 A 
ATOM     23  C   UNL     1     155.587 168.561 178.787 -0.11 -0.01    +0.012 A 
ATOM     24  C   UNL     1     154.503 165.059 178.284 -0.23 -0.00    +0.009 A 
ATOM     25  C   UNL     1     156.806 168.616 178.117 -0.27 -0.03    +0.047 A 
ENDBRANCH  14  15
ENDBRANCH   1  14
TORSDOF 5
TER
ENDMDL
