MODEL        1
USER    Run = 1
USER
USER    Estimated Free Energy of Binding    =  -5.40 kcal/mol  [=(1)+(2)+(3)-(4)]
USER
USER    (1) Final Intermolecular Energy     =  -7.19 kcal/mol
USER        vdW + Hbond + desolv Energy     =  -7.14 kcal/mol
USER        Electrostatic Energy            =  -0.04 kcal/mol
USER        Moving Ligand-Fixed Receptor    =  -7.19 kcal/mol
USER        Moving Ligand-Moving Receptor   =  +0.00 kcal/mol
USER    (2) Final Total Internal Energy     =  -0.56 kcal/mol
USER    (3) Torsional Free Energy           =  +1.79 kcal/mol
USER    (4) Unbound System's Energy         =  -0.56 kcal/mol
USER
USER
REMARK  Name = Z15846800
REMARK  6 active torsions:
REMARK  status: ('A' for Active; 'I' for Inactive)
REMARK    1  A    between atoms: C_5  and  C_6
REMARK    2  A    between atoms: C_6  and  O_7
REMARK    3  A    between atoms: O_7  and  C_8
REMARK    4  A    between atoms: C_8  and  C_10
REMARK    5  A    between atoms: C_10  and  C_11
REMARK    6  A    between atoms: C_11  and  C_12
REMARK                            x       y       z     vdW  Elec       q    Type
REMARK                         _______ _______ _______ _____ _____    ______ ____
USER                              x       y       z     vdW  Elec       q    Type
USER                           _______ _______ _______ _____ _____    ______ ____
ROOT
ATOM      1  C   UNL     1     158.638 168.713 177.323 -0.42 -0.05    +0.123 C 
ENDROOT
BRANCH   1   2
ATOM      2  C   UNL     1     160.107 168.977 177.524 -0.28 -0.08    +0.307 C 
ATOM      3  O   UNL     1     160.847 168.253 178.174 -0.34 +0.09    -0.251 OA
BRANCH   2   4
ATOM      4  O   UNL     1     160.478 170.115 176.879 -0.09 +0.03    -0.460 OA
BRANCH   4   5
ATOM      5  C   UNL     1     160.527 170.040 175.450 -0.31 -0.00    +0.267 C 
BRANCH   5  10
ATOM      6  F   UNL     1     165.271 167.518 173.732 -0.06 +0.06    -0.205 F 
ATOM      7  C   UNL     1     164.153 168.126 174.156 -0.35 -0.03    +0.123 A 
ATOM      8  C   UNL     1     163.838 169.391 173.676 -0.34 -0.01    +0.039 A 
ATOM      9  C   UNL     1     162.670 170.020 174.109 -0.30 -0.00    +0.010 A 
ATOM     10  C   UNL     1     161.814 169.380 175.019 -0.36 +0.00    -0.010 A 
ATOM     11  C   UNL     1     162.157 168.105 175.499 -0.31 -0.00    +0.010 A 
ATOM     12  C   UNL     1     163.328 167.479 175.066 -0.36 -0.01    +0.039 A 
ENDBRANCH   5  10
ENDBRANCH   4   5
ENDBRANCH   2   4
ENDBRANCH   1   2
BRANCH   1  13
ATOM     13  C   UNL     1     158.420 167.297 176.795 -0.40 -0.02    +0.047 C 
BRANCH  13  14
ATOM     14  C   UNL     1     156.985 166.783 176.967 -0.33 -0.11    +0.194 C 
ATOM     15  C   UNL     1     156.911 165.332 177.482 -0.24 -0.11    +0.261 C 
ATOM     16  O   UNL     1     157.894 164.600 177.532 -0.25 +0.10    -0.271 OA
ATOM     17  N   UNL     1     155.653 164.879 177.811 -0.18 +0.08    -0.177 NA
ATOM     18  C   UNL     1     154.835 165.760 178.293 -0.26 -0.04    +0.082 A 
ATOM     19  C   UNL     1     155.229 167.218 178.457 -0.38 -0.05    +0.082 A 
ATOM     20  C   UNL     1     154.392 168.047 179.350 -0.35 -0.03    +0.029 A 
ATOM     21  C   UNL     1     153.235 167.554 179.806 -0.31 -0.00    +0.002 A 
ATOM     22  C   UNL     1     152.748 166.245 179.439 -0.29 -0.00    +0.002 A 
ATOM     23  C   UNL     1     153.474 165.376 178.727 -0.30 -0.01    +0.027 A 
ATOM     24  N   UNL     1     156.251 167.722 177.849 -0.31 +0.16    -0.269 NA
ENDBRANCH  13  14
ENDBRANCH   1  13
TORSDOF 6
TER
ENDMDL
