MODEL        1
USER    Run = 1
USER
USER    Estimated Free Energy of Binding    =  -4.16 kcal/mol  [=(1)+(2)+(3)-(4)]
USER
USER    (1) Final Intermolecular Energy     =  -5.95 kcal/mol
USER        vdW + Hbond + desolv Energy     =  -5.80 kcal/mol
USER        Electrostatic Energy            =  -0.15 kcal/mol
USER        Moving Ligand-Fixed Receptor    =  -5.95 kcal/mol
USER        Moving Ligand-Moving Receptor   =  +0.00 kcal/mol
USER    (2) Final Total Internal Energy     =  -0.91 kcal/mol
USER    (3) Torsional Free Energy           =  +1.79 kcal/mol
USER    (4) Unbound System's Energy         =  -0.91 kcal/mol
USER
USER
REMARK  Name = Z15929915
REMARK  6 active torsions:
REMARK  status: ('A' for Active; 'I' for Inactive)
REMARK    1  A    between atoms: C_2  and  C_4
REMARK    2  A    between atoms: C_4  and  S_5
REMARK    3  A    between atoms: S_5  and  C_6
REMARK    4  A    between atoms: C_10  and  C_22
REMARK    5  A    between atoms: N_14  and  C_15
REMARK    6  A    between atoms: C_15  and  C_16
REMARK                            x       y       z     vdW  Elec       q    Type
REMARK                         _______ _______ _______ _____ _____    ______ ____
USER                              x       y       z     vdW  Elec       q    Type
USER                           _______ _______ _______ _____ _____    ______ ____
ROOT
ATOM      1  C   UNL     1     164.385 170.440 172.809 -0.18 -0.05    +0.171 A 
ATOM      2  N   UNL     1     163.887 171.452 173.592 +0.01 +0.06    -0.314 N 
ATOM      3  C   UNL     1     162.961 170.891 174.452 -0.14 -0.01    +0.070 A 
ATOM      4  C   UNL     1     163.037 169.527 174.190 -0.27 -0.02    +0.091 A 
ATOM      5  C   UNL     1     162.293 168.632 174.973 -0.29 -0.00    +0.042 A 
ATOM      6  C   UNL     1     161.473 169.132 176.002 -0.34 -0.00    +0.057 A 
ATOM      7  C   UNL     1     161.378 170.521 176.200 -0.34 -0.00    +0.014 A 
ATOM      8  C   UNL     1     162.119 171.427 175.433 -0.27 +0.00    +0.028 A 
ATOM      9  N   UNL     1     163.894 169.270 173.151 -0.24 +0.06    -0.222 NA
ENDROOT
BRANCH   6  10
ATOM     10  C   UNL     1     160.714 168.197 176.910 -0.19 -0.06    +0.417 C 
ATOM     11  F   UNL     1     161.411 167.060 177.190 -0.16 +0.02    -0.166 F 
ATOM     12  F   UNL     1     159.538 167.784 176.359 -0.10 +0.03    -0.166 F 
ATOM     13  F   UNL     1     160.389 168.742 178.114 -0.16 +0.07    -0.166 F 
ENDBRANCH   6  10
BRANCH   1  14
ATOM     14  S   UNL     1     165.540 170.697 171.541 -0.29 +0.01    -0.078 S 
BRANCH  14  15
ATOM     15  C   UNL     1     164.552 171.692 170.382 -0.20 -0.03    +0.172 C 
BRANCH  15  19
ATOM     16  N   UNL     1     165.108 173.132 168.480 -0.11 +0.08    -0.329 N 
ATOM     17  H   UNL     1     164.195 172.932 168.097 -0.26 -0.09    +0.145 HD
ATOM     18  H   UNL     1     165.631 173.906 168.089 -0.51 -0.05    +0.145 HD
ATOM     19  C   UNL     1     165.422 172.766 169.761 -0.23 +0.04    +0.221 C 
ATOM     20  O   UNL     1     166.387 173.274 170.331 -0.54 -0.18    -0.275 OA
ENDBRANCH  15  19
ENDBRANCH  14  15
ENDBRANCH   1  14
BRANCH   2  21
ATOM     21  C   UNL     1     164.379 172.821 173.687 -0.05 -0.03    +0.159 C 
BRANCH  21  22
ATOM     22  C   UNL     1     164.475 173.399 175.079 -0.15 +0.00    -0.028 A 
ATOM     23  C   UNL     1     163.843 174.635 175.309 -0.14 +0.00    +0.005 A 
ATOM     24  C   UNL     1     163.834 175.215 176.579 -0.14 +0.00    +0.000 A 
ATOM     25  C   UNL     1     164.468 174.573 177.638 -0.11 +0.00    +0.000 A 
ATOM     26  C   UNL     1     165.130 173.366 177.419 -0.23 -0.00    +0.000 A 
ATOM     27  C   UNL     1     165.142 172.786 176.147 -0.17 -0.00    +0.005 A 
ENDBRANCH  21  22
ENDBRANCH   2  21
TORSDOF 6
TER
ENDMDL
