MODEL        1
USER    Run = 1
USER
USER    Estimated Free Energy of Binding    =  -5.94 kcal/mol  [=(1)+(2)+(3)-(4)]
USER
USER    (1) Final Intermolecular Energy     =  -7.73 kcal/mol
USER        vdW + Hbond + desolv Energy     =  -7.16 kcal/mol
USER        Electrostatic Energy            =  -0.57 kcal/mol
USER        Moving Ligand-Fixed Receptor    =  -7.73 kcal/mol
USER        Moving Ligand-Moving Receptor   =  +0.00 kcal/mol
USER    (2) Final Total Internal Energy     =  -1.14 kcal/mol
USER    (3) Torsional Free Energy           =  +1.79 kcal/mol
USER    (4) Unbound System's Energy         =  -1.14 kcal/mol
USER
USER
REMARK  Name = Z15911851
REMARK  6 active torsions:
REMARK  status: ('A' for Active; 'I' for Inactive)
REMARK    1  A    between atoms: C_2  and  C_4
REMARK    2  A    between atoms: C_4  and  S_5
REMARK    3  A    between atoms: S_5  and  C_6
REMARK    4  A    between atoms: C_9  and  C_10
REMARK    5  A    between atoms: N_16  and  C_17
REMARK    6  A    between atoms: C_17  and  C_18
REMARK                            x       y       z     vdW  Elec       q    Type
REMARK                         _______ _______ _______ _____ _____    ______ ____
USER                              x       y       z     vdW  Elec       q    Type
USER                           _______ _______ _______ _____ _____    ______ ____
ROOT
ATOM      1  C   UNL     1     164.730 170.641 172.415 -0.16 -0.05    +0.193 A 
ATOM      2  N   UNL     1     164.236 170.668 173.697 -0.10 +0.08    -0.298 N 
ATOM      3  C   UNL     1     163.175 169.767 173.714 -0.20 -0.03    +0.165 A 
ATOM      4  N   UNL     1     163.099 169.228 172.510 -0.31 +0.03    -0.128 NA
ATOM      5  N   UNL     1     164.055 169.784 171.696 -0.28 +0.03    -0.122 NA
ENDROOT
BRANCH   3   6
ATOM      6  C   UNL     1     162.291 169.390 174.834 -0.33 -0.00    +0.019 A 
ATOM      7  C   UNL     1     161.205 170.160 175.267 -0.44 -0.00    +0.012 A 
ATOM      8  C   UNL     1     160.374 169.730 176.307 -0.45 -0.00    +0.001 A 
ATOM      9  C   UNL     1     160.604 168.507 176.925 -0.49 -0.00    +0.000 A 
ATOM     10  C   UNL     1     161.668 167.716 176.505 -0.41 -0.00    +0.001 A 
ATOM     11  C   UNL     1     162.502 168.155 175.469 -0.31 -0.00    +0.012 A 
ENDBRANCH   3   6
BRANCH   1  12
ATOM     12  S   UNL     1     165.977 171.669 171.787 -0.29 +0.00    -0.077 S 
BRANCH  12  13
ATOM     13  C   UNL     1     165.029 173.049 171.091 -0.17 -0.01    +0.172 C 
BRANCH  13  17
ATOM     14  N   UNL     1     164.139 173.104 168.814 -0.13 +0.12    -0.329 N 
ATOM     15  H   UNL     1     163.227 173.325 169.194 +0.08 -0.05    +0.145 HD
ATOM     16  H   UNL     1     164.278 173.241 167.818 -0.37 -0.14    +0.145 HD
ATOM     17  C   UNL     1     165.260 173.133 169.594 -0.27 +0.01    +0.221 C 
ATOM     18  O   UNL     1     166.375 173.188 169.087 -0.89 -0.19    -0.275 OA
ENDBRANCH  13  17
ENDBRANCH  12  13
ENDBRANCH   1  12
BRANCH   2  19
ATOM     19  C   UNL     1     164.871 171.278 174.850 +0.03 -0.05    +0.161 C 
BRANCH  19  20
ATOM     20  C   UNL     1     164.560 172.733 175.115 -0.16 +0.00    -0.024 A 
ATOM     21  C   UNL     1     164.585 173.137 176.465 -0.19 -0.00    +0.055 A 
ATOM     22  C   UNL     1     164.191 174.417 176.781 -0.12 +0.05    +0.167 A 
ATOM     23  C   UNL     1     163.771 175.300 175.820 +0.02 +0.10    +0.166 A 
ATOM     24  O   UNL     1     163.386 176.492 176.349 -0.46 -0.50    -0.453 OA
ATOM     25  C   UNL     1     163.716 176.289 177.740 +0.05 +0.28    +0.466 C 
ATOM     26  C   UNL     1     163.756 174.959 174.485 -0.13 +0.01    +0.050 A 
ATOM     27  O   UNL     1     164.140 174.942 178.034 -0.52 -0.25    -0.453 OA
ATOM     28  C   UNL     1     164.176 173.670 174.127 -0.13 -0.00    +0.009 A 
ENDBRANCH  19  20
ENDBRANCH   2  19
TORSDOF 6
TER
ENDMDL
