MODEL        1
USER    Run = 1
USER
USER    Estimated Free Energy of Binding    =  -4.41 kcal/mol  [=(1)+(2)+(3)-(4)]
USER
USER    (1) Final Intermolecular Energy     =  -5.60 kcal/mol
USER        vdW + Hbond + desolv Energy     =  -5.27 kcal/mol
USER        Electrostatic Energy            =  -0.33 kcal/mol
USER        Moving Ligand-Fixed Receptor    =  -5.60 kcal/mol
USER        Moving Ligand-Moving Receptor   =  +0.00 kcal/mol
USER    (2) Final Total Internal Energy     =  -1.98 kcal/mol
USER    (3) Torsional Free Energy           =  +1.19 kcal/mol
USER    (4) Unbound System's Energy         =  -1.98 kcal/mol
USER
USER
REMARK  Name = Z15932155
REMARK  7 active torsions:
REMARK  status: ('A' for Active; 'I' for Inactive)
REMARK    1  A    between atoms: C_1  and  C_2
REMARK    2  A    between atoms: C_6  and  C_7
REMARK    3  A    between atoms: C_6  and  C_8
REMARK    4  A    between atoms: C_12  and  C_14
REMARK    5  A    between atoms: C_14  and  N_15
REMARK    6  A    between atoms: N_20  and  C_21
REMARK    7  A    between atoms: C_21  and  C_22
REMARK                            x       y       z     vdW  Elec       q    Type
REMARK                         _______ _______ _______ _____ _____    ______ ____
USER                              x       y       z     vdW  Elec       q    Type
USER                           _______ _______ _______ _____ _____    ______ ____
ROOT
ATOM      1  N   UNL     1     164.838 176.219 173.696 -0.02 +0.07    -0.293 N 
ATOM      2  C   UNL     1     165.056 175.073 172.884 -0.08 -0.02    +0.070 A 
ATOM      3  C   UNL     1     164.915 173.782 173.446 -0.07 -0.01    +0.069 A 
ATOM      4  C   UNL     1     165.198 172.662 172.645 -0.15 -0.01    +0.029 A 
ATOM      5  C   UNL     1     165.536 172.811 171.296 -0.21 +0.00    +0.022 A 
ATOM      6  C   UNL     1     165.633 174.080 170.745 -0.22 +0.00    +0.043 A 
ATOM      7 CL   UNL     1     165.997 174.265 169.072 -0.42 -0.01    -0.084 Cl
ATOM      8  N   UNL     1     164.414 173.640 174.774 -0.04 +0.01    -0.298 N 
ATOM      9  C   UNL     1     163.805 174.722 175.407 -0.00 +0.13    +0.317 C 
ATOM     10  O   UNL     1     163.010 174.617 176.336 -0.61 -0.33    -0.262 OA
ATOM     11  C   UNL     1     165.418 175.206 171.533 -0.12 -0.01    +0.048 A 
ATOM     12  C   UNL     1     164.221 176.121 174.942 -0.00 +0.05    +0.317 C 
ATOM     13  O   UNL     1     164.013 177.082 175.674 -0.49 -0.14    -0.262 OA
ENDROOT
BRANCH   1  14
ATOM     14  C   UNL     1     165.092 177.574 173.212 +0.01 -0.07    +0.221 C 
BRANCH  14  19
ATOM     15  C   UNL     1     170.235 180.635 171.665 -0.02 -0.00    +0.013 C 
ATOM     16  C   UNL     1     168.999 179.764 171.442 -0.04 +0.00    -0.014 C 
ATOM     17  C   UNL     1     168.598 179.090 172.769 -0.00 -0.02    +0.115 C 
ATOM     18  N   UNL     1     167.187 178.765 172.602 +0.03 +0.04    -0.296 N 
ATOM     19  C   UNL     1     166.543 177.963 173.513 +0.03 -0.04    +0.236 C 
ATOM     20  O   UNL     1     167.114 177.600 174.544 -0.02 +0.03    -0.274 OA
ATOM     21  C   UNL     1     166.682 179.357 171.368 -0.10 -0.01    +0.077 C 
ATOM     22  C   UNL     1     166.750 178.335 170.212 -0.20 -0.00    +0.028 C 
ATOM     23  C   UNL     1     168.164 177.738 169.974 -0.18 +0.00    -0.033 C 
ATOM     24  C   UNL     1     168.431 176.484 170.841 -0.15 -0.00    +0.011 C 
ATOM     25  C   UNL     1     168.258 177.236 168.516 -0.22 +0.00    +0.011 C 
ATOM     26  C   UNL     1     169.244 178.819 170.225 -0.08 -0.00    +0.014 C 
ATOM     27  C   UNL     1     167.684 180.508 171.147 -0.06 -0.00    +0.030 C 
ENDBRANCH  14  19
ENDBRANCH   1  14
BRANCH   8  28
ATOM     28  C   UNL     1     164.397 172.362 175.488 -0.05 -0.02    +0.160 C 
BRANCH  28  29
ATOM     29  C   UNL     1     163.128 171.571 175.219 -0.06 +0.00    -0.028 A 
ATOM     30  C   UNL     1     163.139 170.454 174.372 -0.24 -0.00    +0.005 A 
ATOM     31  C   UNL     1     161.980 169.707 174.164 -0.34 -0.00    +0.000 A 
ATOM     32  C   UNL     1     160.786 170.068 174.787 -0.41 +0.00    +0.000 A 
ATOM     33  C   UNL     1     160.749 171.198 175.600 -0.37 +0.00    +0.000 A 
ATOM     34  C   UNL     1     161.910 171.947 175.812 -0.34 +0.00    +0.005 A 
ENDBRANCH  28  29
ENDBRANCH   8  28
TORSDOF 4
TER
ENDMDL
