MODEL        1
USER    Run = 1
USER
USER    Estimated Free Energy of Binding    =  -5.84 kcal/mol  [=(1)+(2)+(3)-(4)]
USER
USER    (1) Final Intermolecular Energy     =  -7.33 kcal/mol
USER        vdW + Hbond + desolv Energy     =  -7.13 kcal/mol
USER        Electrostatic Energy            =  -0.20 kcal/mol
USER        Moving Ligand-Fixed Receptor    =  -7.33 kcal/mol
USER        Moving Ligand-Moving Receptor   =  +0.00 kcal/mol
USER    (2) Final Total Internal Energy     =  -1.31 kcal/mol
USER    (3) Torsional Free Energy           =  +1.49 kcal/mol
USER    (4) Unbound System's Energy         =  -1.31 kcal/mol
USER
USER
REMARK  Name = Z15906246
REMARK  6 active torsions:
REMARK  status: ('A' for Active; 'I' for Inactive)
REMARK    1  A    between atoms: C_1  and  N_2
REMARK    2  A    between atoms: C_3  and  C_5
REMARK    3  A    between atoms: C_5  and  S_6
REMARK    4  A    between atoms: S_6  and  C_7
REMARK    5  A    between atoms: C_10  and  C_11
REMARK    6  A    between atoms: N_18  and  C_19
REMARK                            x       y       z     vdW  Elec       q    Type
REMARK                         _______ _______ _______ _____ _____    ______ ____
USER                              x       y       z     vdW  Elec       q    Type
USER                           _______ _______ _______ _____ _____    ______ ____
ROOT
ATOM      1  C   UNL     1     152.268 164.991 179.817 -0.17 -0.07    +0.193 A 
ATOM      2  N   UNL     1     153.227 165.978 179.654 -0.16 +0.18    -0.299 N 
ATOM      3  C   UNL     1     154.107 165.486 178.686 -0.21 -0.08    +0.168 A 
ATOM      4  N   UNL     1     153.644 164.298 178.313 -0.27 +0.05    -0.128 NA
ATOM      5  N   UNL     1     152.510 163.992 179.010 -0.26 +0.04    -0.122 NA
ENDROOT
BRANCH   3   6
ATOM      6  C   UNL     1     155.339 166.064 178.089 -0.32 -0.03    +0.054 A 
ATOM      7  C   UNL     1     155.523 167.458 178.068 -0.35 -0.08    +0.134 A 
ATOM      8  F   UNL     1     154.554 168.282 178.490 -0.08 +0.17    -0.205 F 
ATOM      9  C   UNL     1     156.706 168.055 177.608 -0.44 -0.02    +0.039 A 
ATOM     10  C   UNL     1     157.748 167.266 177.134 -0.43 -0.00    +0.003 A 
ATOM     11  C   UNL     1     157.594 165.888 177.120 -0.40 -0.00    +0.001 A 
ATOM     12  C   UNL     1     156.412 165.308 177.604 -0.33 -0.01    +0.014 A 
ENDBRANCH   3   6
BRANCH   2  13
ATOM     13  C   UNL     1     153.214 167.230 180.378 -0.33 -0.08    +0.091 C 
ATOM     14  C   UNL     1     153.229 167.096 181.907 -0.27 -0.02    +0.025 C 
ATOM     15  C   UNL     1     152.366 168.241 182.438 -0.36 -0.00    +0.002 C 
ATOM     16  C   UNL     1     152.073 169.150 181.250 -0.29 -0.00    +0.002 C 
ATOM     17  C   UNL     1     152.145 168.259 180.017 -0.27 -0.02    +0.025 C 
ENDBRANCH   2  13
BRANCH   1  18
ATOM     18  S   UNL     1     150.947 165.084 180.940 -0.51 +0.02    -0.077 S 
BRANCH  18  19
ATOM     19  C   UNL     1     149.783 166.198 180.108 -0.18 -0.05    +0.173 C 
BRANCH  19  23
ATOM     20  C   UNL     1     149.798 165.809 176.321 -0.18 -0.06    +0.128 C 
ATOM     21  N   UNL     1     149.965 166.293 177.669 -0.08 +0.20    -0.318 N 
ATOM     22  H   UNL     1     150.638 167.028 177.840 -0.50 -0.19    +0.148 HD
ATOM     23  C   UNL     1     149.444 165.601 178.746 -0.14 -0.04    +0.223 C 
ATOM     24  O   UNL     1     148.781 164.573 178.618 -0.59 -0.08    -0.275 OA
ENDBRANCH  19  23
ENDBRANCH  18  19
ENDBRANCH   1  18
TORSDOF 5
TER
ENDMDL
