MODEL        1
USER    Run = 1
USER
USER    Estimated Free Energy of Binding    =  -4.33 kcal/mol  [=(1)+(2)+(3)-(4)]
USER
USER    (1) Final Intermolecular Energy     =  -6.42 kcal/mol
USER        vdW + Hbond + desolv Energy     =  -6.39 kcal/mol
USER        Electrostatic Energy            =  -0.03 kcal/mol
USER        Moving Ligand-Fixed Receptor    =  -6.42 kcal/mol
USER        Moving Ligand-Moving Receptor   =  +0.00 kcal/mol
USER    (2) Final Total Internal Energy     =  -2.40 kcal/mol
USER    (3) Torsional Free Energy           =  +2.09 kcal/mol
USER    (4) Unbound System's Energy         =  -2.40 kcal/mol
USER
USER
REMARK  Name = Z15905195
REMARK  9 active torsions:
REMARK  status: ('A' for Active; 'I' for Inactive)
REMARK    1  A    between atoms: C_1  and  O_2
REMARK    2  A    between atoms: O_2  and  C_3
REMARK    3  A    between atoms: C_6  and  N_11
REMARK    4  A    between atoms: C_8  and  O_9
REMARK    5  A    between atoms: O_9  and  C_10
REMARK    6  A    between atoms: C_12  and  S_13
REMARK    7  A    between atoms: S_13  and  C_14
REMARK    8  A    between atoms: C_14  and  C_15
REMARK    9  A    between atoms: C_20  and  C_21
REMARK                            x       y       z     vdW  Elec       q    Type
REMARK                         _______ _______ _______ _____ _____    ______ ____
USER                              x       y       z     vdW  Elec       q    Type
USER                           _______ _______ _______ _____ _____    ______ ____
ROOT
ATOM      1  N   UNL     1     152.863 165.403 179.620 -0.16 +0.13    -0.270 N 
ATOM      2  C   UNL     1     154.018 166.215 179.600 -0.26 -0.10    +0.169 A 
ATOM      3  N   UNL     1     154.007 166.992 180.675 -0.28 +0.11    -0.128 NA
ATOM      4  N   UNL     1     152.872 166.761 181.385 -0.29 +0.09    -0.122 NA
ATOM      5  C   UNL     1     152.187 165.831 180.761 -0.17 -0.10    +0.197 A 
ENDROOT
BRANCH   2   6
ATOM      6  C   UNL     1     155.104 166.293 178.598 -0.41 -0.01    +0.020 A 
ATOM      7  C   UNL     1     155.543 165.192 177.848 -0.25 -0.01    +0.012 A 
ATOM      8  C   UNL     1     156.653 165.295 177.002 -0.40 -0.00    +0.001 A 
ATOM      9  C   UNL     1     157.284 166.524 176.820 -0.43 -0.00    +0.000 A 
ATOM     10  C   UNL     1     156.799 167.652 177.476 -0.49 -0.00    +0.001 A 
ATOM     11  C   UNL     1     155.722 167.535 178.360 -0.46 -0.01    +0.012 A 
ENDBRANCH   2   6
BRANCH   1  15
ATOM     12  C   UNL     1     151.667 162.288 176.960 -0.12 -0.05    +0.162 A 
ATOM     13  C   UNL     1     152.864 162.184 177.672 -0.14 -0.06    +0.163 A 
ATOM     14  C   UNL     1     153.240 163.184 178.582 -0.11 -0.02    +0.075 A 
ATOM     15  C   UNL     1     152.496 164.365 178.700 -0.29 -0.02    +0.054 A 
ATOM     16  C   UNL     1     151.359 164.504 177.896 -0.26 -0.01    +0.030 A 
ATOM     17  C   UNL     1     150.912 163.454 177.091 -0.18 -0.01    +0.051 A 
BRANCH  13  18
ATOM     18  O   UNL     1     153.734 161.129 177.575 -0.06 +0.21    -0.491 OA
ATOM     19  C   UNL     1     155.096 161.484 177.850 -0.23 -0.13    +0.277 C 
ENDBRANCH  13  18
BRANCH  12  21
ATOM     20  C   UNL     1     152.034 160.946 175.045 -0.02 -0.10    +0.277 C 
ATOM     21  O   UNL     1     151.266 161.215 176.211 -0.03 +0.14    -0.491 OA
ENDBRANCH  12  21
ENDBRANCH   1  15
BRANCH   5  22
ATOM     22  S   UNL     1     150.721 165.168 181.419 -0.54 +0.02    -0.076 S 
BRANCH  22  23
ATOM     23  C   UNL     1     149.492 166.442 181.009 -0.21 -0.07    +0.172 C 
BRANCH  23  24
ATOM     24  C   UNL     1     149.716 167.019 179.624 -0.09 -0.11    +0.221 C 
ATOM     25  N   UNL     1     150.784 167.858 179.485 -0.01 +0.28    -0.329 N 
ATOM     26  H   UNL     1     150.982 168.234 178.569 -0.48 -0.22    +0.145 HD
ATOM     27  H   UNL     1     151.485 167.962 180.216 +0.08 -0.12    +0.145 HD
ATOM     28  O   UNL     1     148.966 166.802 178.675 -0.09 +0.11    -0.275 OA
ENDBRANCH  23  24
ENDBRANCH  22  23
ENDBRANCH   5  22
TORSDOF 7
TER
ENDMDL
