MODEL        1
USER    Run = 1
USER
USER    Estimated Free Energy of Binding    =  -4.12 kcal/mol  [=(1)+(2)+(3)-(4)]
USER
USER    (1) Final Intermolecular Energy     =  -5.91 kcal/mol
USER        vdW + Hbond + desolv Energy     =  -5.81 kcal/mol
USER        Electrostatic Energy            =  -0.10 kcal/mol
USER        Moving Ligand-Fixed Receptor    =  -5.91 kcal/mol
USER        Moving Ligand-Moving Receptor   =  +0.00 kcal/mol
USER    (2) Final Total Internal Energy     =  -2.64 kcal/mol
USER    (3) Torsional Free Energy           =  +1.79 kcal/mol
USER    (4) Unbound System's Energy         =  -2.64 kcal/mol
USER
USER
REMARK  Name = Z15906227
REMARK  8 active torsions:
REMARK  status: ('A' for Active; 'I' for Inactive)
REMARK    1  A    between atoms: C_1  and  C_2
REMARK    2  A    between atoms: C_2  and  C_3
REMARK    3  A    between atoms: C_2  and  N_4
REMARK    4  A    between atoms: C_5  and  C_7
REMARK    5  A    between atoms: C_7  and  S_8
REMARK    6  A    between atoms: S_8  and  C_9
REMARK    7  A    between atoms: C_12  and  C_13
REMARK    8  A    between atoms: N_20  and  C_21
REMARK                            x       y       z     vdW  Elec       q    Type
REMARK                         _______ _______ _______ _____ _____    ______ ____
USER                              x       y       z     vdW  Elec       q    Type
USER                           _______ _______ _______ _____ _____    ______ ____
ROOT
ATOM      1  C   UNL     1     164.752 169.448 173.388 -0.18 -0.06    +0.193 A 
ATOM      2  N   UNL     1     165.243 170.729 173.493 -0.13 +0.12    -0.299 N 
ATOM      3  C   UNL     1     164.864 171.362 172.294 -0.15 -0.04    +0.168 A 
ATOM      4  N   UNL     1     164.166 170.487 171.585 -0.25 +0.03    -0.128 NA
ATOM      5  N   UNL     1     164.109 169.300 172.256 -0.28 +0.03    -0.122 NA
ENDROOT
BRANCH   3   6
ATOM      6  C   UNL     1     165.031 172.768 171.869 -0.15 -0.01    +0.054 A 
ATOM      7  C   UNL     1     165.603 173.188 170.662 -0.16 +0.02    +0.134 A 
ATOM      8  F   UNL     1     165.919 172.314 169.696 -0.01 -0.12    -0.205 F 
ATOM      9  C   UNL     1     165.816 174.541 170.372 -0.24 +0.00    +0.039 A 
ATOM     10  C   UNL     1     165.356 175.522 171.242 -0.09 -0.00    +0.003 A 
ATOM     11  C   UNL     1     164.675 175.141 172.394 -0.14 -0.00    +0.001 A 
ATOM     12  C   UNL     1     164.525 173.783 172.707 -0.11 -0.00    +0.014 A 
ENDBRANCH   3   6
BRANCH   2  13
ATOM     13  C   UNL     1     165.905 171.377 174.601 -0.18 -0.05    +0.091 C 
ATOM     14  C   UNL     1     166.776 170.613 175.607 -0.33 -0.02    +0.025 C 
ATOM     15  C   UNL     1     167.007 171.620 176.745 -0.34 -0.00    +0.002 C 
ATOM     16  C   UNL     1     166.050 172.786 176.486 -0.27 -0.00    +0.002 C 
ATOM     17  C   UNL     1     165.023 172.241 175.497 -0.10 -0.01    +0.025 C 
ENDBRANCH   2  13
BRANCH   1  18
ATOM     18  S   UNL     1     164.893 168.194 174.576 -0.54 +0.03    -0.077 S 
BRANCH  18  19
ATOM     19  C   UNL     1     163.211 167.508 174.596 -0.31 -0.03    +0.173 C 
BRANCH  19  22
ATOM     20  N   UNL     1     161.904 169.571 174.392 -0.18 +0.02    -0.312 N 
ATOM     21  H   UNL     1     162.462 169.726 173.567 +0.10 -0.02    +0.149 HD
ATOM     22  C   UNL     1     162.256 168.519 175.221 -0.22 -0.02    +0.224 C 
ATOM     23  O   UNL     1     161.828 168.400 176.365 -0.29 +0.02    -0.275 OA
BRANCH  20  25
ATOM     24  C   UNL     1     159.682 170.107 175.314 -0.46 -0.00    +0.027 C 
ATOM     25  C   UNL     1     161.029 170.651 174.845 -0.39 +0.00    +0.067 C 
ATOM     26  C   UNL     1     161.706 171.437 175.966 -0.40 +0.00    +0.027 C 
ENDBRANCH  20  25
ENDBRANCH  19  22
ENDBRANCH  18  19
ENDBRANCH   1  18
TORSDOF 6
TER
ENDMDL
