MODEL        1
USER    Run = 1
USER
USER    Estimated Free Energy of Binding    =  -4.28 kcal/mol  [=(1)+(2)+(3)-(4)]
USER
USER    (1) Final Intermolecular Energy     =  -5.18 kcal/mol
USER        vdW + Hbond + desolv Energy     =  -5.23 kcal/mol
USER        Electrostatic Energy            =  +0.05 kcal/mol
USER        Moving Ligand-Fixed Receptor    =  -5.18 kcal/mol
USER        Moving Ligand-Moving Receptor   =  +0.00 kcal/mol
USER    (2) Final Total Internal Energy     =  -0.65 kcal/mol
USER    (3) Torsional Free Energy           =  +0.89 kcal/mol
USER    (4) Unbound System's Energy         =  -0.65 kcal/mol
USER
USER
REMARK  Name = Z15910211
REMARK  3 active torsions:
REMARK  status: ('A' for Active; 'I' for Inactive)
REMARK    1  A    between atoms: C_2  and  C_3
REMARK    2  A    between atoms: C_3  and  S_4
REMARK    3  A    between atoms: S_4  and  C_5
REMARK                            x       y       z     vdW  Elec       q    Type
REMARK                         _______ _______ _______ _____ _____    ______ ____
USER                              x       y       z     vdW  Elec       q    Type
USER                           _______ _______ _______ _____ _____    ______ ____
ROOT
ATOM      1  C   UNL     1     164.151 171.312 173.582 -0.07 -0.04    +0.176 A 
ATOM      2  N   UNL     1     164.542 172.404 172.773 -0.04 +0.05    -0.271 N 
ATOM      3  C   UNL     1     164.619 173.680 173.303 -0.03 -0.03    +0.150 A 
ATOM      4  N   UNL     1     165.000 174.574 172.419 -0.07 +0.04    -0.227 NA
ATOM      5  C   UNL     1     165.165 173.871 171.257 -0.16 -0.01    +0.090 A 
ATOM      6  C   UNL     1     165.559 174.355 169.999 -0.27 +0.00    +0.030 A 
ATOM      7  C   UNL     1     165.643 173.468 168.924 -0.37 +0.00    +0.002 A 
ATOM      8  C   UNL     1     165.336 172.122 169.097 -0.33 +0.00    +0.002 A 
ATOM      9  C   UNL     1     164.948 171.619 170.346 -0.22 -0.00    +0.028 A 
ATOM     10  C   UNL     1     164.271 173.889 174.694 -0.13 -0.00    +0.043 A 
ATOM     11  C   UNL     1     163.905 172.750 175.429 -0.15 -0.00    +0.077 A 
ATOM     12  C   UNL     1     163.568 172.899 176.776 -0.16 +0.00    +0.028 A 
ATOM     13  C   UNL     1     163.573 174.164 177.371 -0.27 +0.00    +0.002 A 
ATOM     14  C   UNL     1     163.918 175.293 176.625 -0.14 +0.00    +0.001 A 
ATOM     15  C   UNL     1     164.275 175.155 175.286 -0.13 +0.00    +0.013 A 
ATOM     16  C   UNL     1     164.871 172.515 171.427 -0.17 -0.01    +0.076 A 
ATOM     17  N   UNL     1     163.842 171.466 174.842 -0.07 +0.04    -0.223 NA
ENDROOT
BRANCH   1  18
ATOM     18  S   UNL     1     163.978 169.698 172.907 -0.48 +0.02    -0.078 S 
BRANCH  18  19
ATOM     19  C   UNL     1     163.147 168.830 174.260 -0.30 -0.03    +0.173 C 
BRANCH  19  21
ATOM     20  O   UNL     1     161.087 170.004 173.755 -0.19 -0.00    -0.275 OA
ATOM     21  C   UNL     1     161.765 169.392 174.581 -0.19 -0.01    +0.226 C 
ATOM     22  N   UNL     1     161.317 169.195 175.885 -0.20 +0.02    -0.296 N 
ATOM     23  C   UNL     1     161.838 168.190 176.820 -0.10 -0.01    +0.136 C 
ATOM     24  C   UNL     1     160.773 167.115 177.073 -0.19 -0.03    +0.178 C 
ATOM     25  O   UNL     1     159.550 167.704 177.544 -0.17 +0.11    -0.377 OA
ATOM     26  C   UNL     1     159.026 168.639 176.582 -0.30 -0.05    +0.178 C 
ATOM     27  C   UNL     1     160.032 169.760 176.307 -0.32 -0.01    +0.136 C 
ENDBRANCH  19  21
ENDBRANCH  18  19
ENDBRANCH   1  18
TORSDOF 3
TER
ENDMDL
