MODEL        1
USER    Run = 1
USER
USER    Estimated Free Energy of Binding    =  -3.47 kcal/mol  [=(1)+(2)+(3)-(4)]
USER
USER    (1) Final Intermolecular Energy     =  -4.96 kcal/mol
USER        vdW + Hbond + desolv Energy     =  -4.73 kcal/mol
USER        Electrostatic Energy            =  -0.23 kcal/mol
USER        Moving Ligand-Fixed Receptor    =  -4.96 kcal/mol
USER        Moving Ligand-Moving Receptor   =  +0.00 kcal/mol
USER    (2) Final Total Internal Energy     =  -2.19 kcal/mol
USER    (3) Torsional Free Energy           =  +1.49 kcal/mol
USER    (4) Unbound System's Energy         =  -2.19 kcal/mol
USER
USER
REMARK  Name = Z15931505
REMARK  5 active torsions:
REMARK  status: ('A' for Active; 'I' for Inactive)
REMARK    1  A    between atoms: N_6  and  C_7
REMARK    2  A    between atoms: C_7  and  C_8
REMARK    3  A    between atoms: N_18  and  C_19
REMARK    4  A    between atoms: C_19  and  C_20
REMARK    5  A    between atoms: N_25  and  C_26
REMARK                            x       y       z     vdW  Elec       q    Type
REMARK                         _______ _______ _______ _____ _____    ______ ____
USER                              x       y       z     vdW  Elec       q    Type
USER                           _______ _______ _______ _____ _____    ______ ____
ROOT
ATOM      1 CL   UNL     1     165.583 172.771 168.783 -0.60 -0.01    -0.084 Cl
ATOM      2  C   UNL     1     165.347 172.971 170.475 -0.25 +0.00    +0.043 A 
ATOM      3  C   UNL     1     165.285 174.253 171.020 -0.20 -0.00    +0.048 A 
ATOM      4  C   UNL     1     165.052 174.434 172.393 -0.10 -0.01    +0.070 A 
ATOM      5  C   UNL     1     164.883 173.297 173.228 -0.09 -0.01    +0.069 A 
ATOM      6  N   UNL     1     164.509 173.468 174.598 -0.03 +0.03    -0.298 N 
ATOM      7  C   UNL     1     164.177 174.734 175.062 -0.03 +0.05    +0.317 C 
ATOM      8  C   UNL     1     164.827 175.903 174.327 +0.00 -0.03    +0.317 C 
ATOM      9  O   UNL     1     165.141 176.920 174.935 -0.04 -0.00    -0.262 OA
ATOM     10  O   UNL     1     163.433 174.966 176.008 -0.69 -0.24    -0.262 OA
ATOM     11  C   UNL     1     164.996 172.018 172.658 -0.19 -0.01    +0.029 A 
ATOM     12  N   UNL     1     165.018 175.741 172.965 -0.03 +0.08    -0.293 N 
ATOM     13  C   UNL     1     165.210 171.856 171.287 -0.25 -0.00    +0.022 A 
ENDROOT
BRANCH   6  14
ATOM     14  C   UNL     1     164.303 172.349 175.519 -0.04 -0.02    +0.160 C 
BRANCH  14  15
ATOM     15  C   UNL     1     163.024 171.587 175.232 -0.11 +0.00    -0.028 A 
ATOM     16  C   UNL     1     163.037 170.439 174.426 -0.25 -0.00    +0.005 A 
ATOM     17  C   UNL     1     161.862 169.719 174.188 -0.34 -0.00    +0.000 A 
ATOM     18  C   UNL     1     160.656 170.146 174.741 -0.40 +0.00    +0.000 A 
ATOM     19  C   UNL     1     160.620 171.306 175.512 -0.29 +0.00    +0.000 A 
ATOM     20  C   UNL     1     161.793 172.024 175.752 -0.32 +0.00    +0.005 A 
ENDBRANCH  14  15
ENDBRANCH   6  14
BRANCH  12  21
ATOM     21  C   UNL     1     165.249 176.951 172.183 +0.12 -0.07    +0.221 C 
BRANCH  21  22
ATOM     22  C   UNL     1     166.715 177.300 171.966 -0.01 -0.04    +0.240 C 
ATOM     23  N   UNL     1     167.501 177.274 173.109 +0.00 +0.04    -0.239 N 
ATOM     24  H   UNL     1     167.084 176.954 173.977 +0.05 -0.03    +0.159 HD
ATOM     25  C   UNL     1     168.862 177.431 173.194 +0.00 -0.06    +0.306 C 
ATOM     26  N   UNL     1     169.501 177.848 172.055 +0.01 +0.05    -0.296 N 
ATOM     27  H   UNL     1     168.930 177.948 171.221 +0.05 -0.02    +0.150 HD
ATOM     28  O   UNL     1     169.446 177.158 174.245 -0.09 +0.06    -0.252 OA
ATOM     29  O   UNL     1     167.129 177.658 170.865 -0.10 +0.02    -0.273 OA
BRANCH  26  30
ATOM     30  C   UNL     1     170.956 177.861 171.933 -0.04 -0.02    +0.074 C 
ATOM     31  C   UNL     1     171.440 178.673 170.715 -0.03 -0.00    +0.022 C 
ATOM     32  C   UNL     1     171.699 177.878 169.433 -0.05 -0.00    +0.002 C 
ATOM     33  C   UNL     1     172.446 176.580 169.693 -0.10 -0.00    +0.000 C 
ATOM     34  C   UNL     1     171.663 175.726 170.678 -0.15 -0.00    +0.002 C 
ATOM     35  C   UNL     1     171.539 176.441 172.019 -0.16 -0.01    +0.022 C 
ENDBRANCH  26  30
ENDBRANCH  21  22
ENDBRANCH  12  21
TORSDOF 5
TER
ENDMDL
