MODEL        1
USER    Run = 1
USER
USER    Estimated Free Energy of Binding    =  -4.58 kcal/mol  [=(1)+(2)+(3)-(4)]
USER
USER    (1) Final Intermolecular Energy     =  -6.67 kcal/mol
USER        vdW + Hbond + desolv Energy     =  -6.50 kcal/mol
USER        Electrostatic Energy            =  -0.17 kcal/mol
USER        Moving Ligand-Fixed Receptor    =  -6.67 kcal/mol
USER        Moving Ligand-Moving Receptor   =  +0.00 kcal/mol
USER    (2) Final Total Internal Energy     =  -2.64 kcal/mol
USER    (3) Torsional Free Energy           =  +2.09 kcal/mol
USER    (4) Unbound System's Energy         =  -2.64 kcal/mol
USER
USER
REMARK  Name = Z15994985
REMARK  8 active torsions:
REMARK  status: ('A' for Active; 'I' for Inactive)
REMARK    1  A    between atoms: C_1  and  C_2
REMARK    2  A    between atoms: C_5  and  C_6
REMARK    3  A    between atoms: C_6  and  N_7
REMARK    4  A    between atoms: C_17  and  S_18
REMARK    5  A    between atoms: S_18  and  C_19
REMARK    6  A    between atoms: C_19  and  C_20
REMARK    7  A    between atoms: N_22  and  C_23
REMARK    8  A    between atoms: C_23  and  C_24
REMARK                            x       y       z     vdW  Elec       q    Type
REMARK                         _______ _______ _______ _____ _____    ______ ____
USER                              x       y       z     vdW  Elec       q    Type
USER                           _______ _______ _______ _____ _____    ______ ____
ROOT
ATOM      1  N   UNL     1     164.286 169.895 173.042 -0.18 +0.08    -0.272 N 
ATOM      2  C   UNL     1     164.903 170.992 173.619 -0.09 -0.08    +0.240 A 
ATOM      3  N   UNL     1     165.009 172.214 172.980 -0.08 +0.06    -0.256 N 
ATOM      4  C   UNL     1     165.522 173.051 173.951 +0.22 -0.05    +0.198 A 
ATOM      5  N   UNL     1     165.902 172.347 174.995 +0.01 +0.04    -0.120 NA
ATOM      6  C   UNL     1     164.653 172.374 171.624 -0.12 -0.01    +0.064 A 
ATOM      7  C   UNL     1     164.133 171.242 170.977 -0.08 -0.02    +0.064 A 
ATOM      8  C   UNL     1     163.840 171.295 169.606 -0.18 -0.00    +0.015 A 
ATOM      9  C   UNL     1     164.044 172.471 168.888 -0.36 -0.00    +0.001 A 
ATOM     10  C   UNL     1     164.541 173.597 169.536 -0.33 -0.00    +0.002 A 
ATOM     11  C   UNL     1     164.859 173.551 170.898 -0.24 -0.00    +0.027 A 
ATOM     12  N   UNL     1     165.488 171.053 174.797 -0.21 +0.05    -0.109 NA
ATOM     13  C   UNL     1     163.888 169.968 171.712 -0.09 -0.07    +0.263 C 
ATOM     14  O   UNL     1     163.370 169.034 171.105 -0.30 +0.10    -0.267 OA
ENDROOT
BRANCH   4  15
ATOM     15  S   UNL     1     165.515 174.782 173.921 -0.11 +0.01    -0.076 S 
BRANCH  15  16
ATOM     16  C   UNL     1     165.636 175.182 175.682 -0.06 +0.00    +0.173 C 
BRANCH  16  17
ATOM     17  C   UNL     1     164.361 174.766 176.388 -0.10 +0.07    +0.224 C 
ATOM     18  N   UNL     1     164.344 173.459 176.833 -0.11 -0.03    -0.311 N 
ATOM     19  H   UNL     1     165.238 172.987 176.950 +0.09 -0.02    +0.149 HD
ATOM     20  O   UNL     1     163.426 175.545 176.562 -0.66 -0.26    -0.275 OA
BRANCH  18  21
ATOM     21  C   UNL     1     163.236 172.993 177.628 -0.05 +0.02    +0.131 C 
BRANCH  21  22
ATOM     22  C   UNL     1     162.264 172.309 176.725 -0.20 -0.00    -0.016 C 
ATOM     23  C   UNL     1     162.229 172.463 175.395 -0.21 +0.00    +0.005 C 
ENDBRANCH  21  22
ENDBRANCH  18  21
ENDBRANCH  16  17
ENDBRANCH  15  16
ENDBRANCH   4  15
BRANCH   1  24
ATOM     24  C   UNL     1     164.112 168.640 173.761 -0.36 -0.04    +0.163 C 
BRANCH  24  29
ATOM     25  C   UNL     1     159.784 168.908 177.605 -0.49 -0.01    +0.044 C 
ATOM     26  C   UNL     1     160.756 168.684 176.483 -0.41 +0.01    -0.050 A 
ATOM     27  C   UNL     1     160.807 169.577 175.408 -0.37 -0.00    +0.003 A 
ATOM     28  C   UNL     1     161.838 169.499 174.465 -0.33 -0.00    +0.006 A 
ATOM     29  C   UNL     1     162.852 168.543 174.598 -0.34 +0.00    -0.028 A 
ATOM     30  C   UNL     1     162.736 167.581 175.613 -0.38 -0.00    +0.006 A 
ATOM     31  C   UNL     1     161.702 167.657 176.553 -0.41 -0.00    +0.003 A 
ENDBRANCH  24  29
ENDBRANCH   1  24
TORSDOF 7
TER
ENDMDL
