MODEL        1
USER    Run = 1
USER
USER    Estimated Free Energy of Binding    =  -3.79 kcal/mol  [=(1)+(2)+(3)-(4)]
USER
USER    (1) Final Intermolecular Energy     =  -4.69 kcal/mol
USER        vdW + Hbond + desolv Energy     =  -4.56 kcal/mol
USER        Electrostatic Energy            =  -0.13 kcal/mol
USER        Moving Ligand-Fixed Receptor    =  -4.69 kcal/mol
USER        Moving Ligand-Moving Receptor   =  +0.00 kcal/mol
USER    (2) Final Total Internal Energy     =  -1.13 kcal/mol
USER    (3) Torsional Free Energy           =  +0.89 kcal/mol
USER    (4) Unbound System's Energy         =  -1.13 kcal/mol
USER
USER
REMARK  Name = Z15909518
REMARK  4 active torsions:
REMARK  status: ('A' for Active; 'I' for Inactive)
REMARK    1  A    between atoms: C_1  and  N_2
REMARK    2  A    between atoms: C_3  and  C_5
REMARK    3  A    between atoms: C_5  and  S_6
REMARK    4  A    between atoms: S_6  and  C_7
REMARK                            x       y       z     vdW  Elec       q    Type
REMARK                         _______ _______ _______ _____ _____    ______ ____
USER                              x       y       z     vdW  Elec       q    Type
USER                           _______ _______ _______ _____ _____    ______ ____
ROOT
ATOM      1  C   UNL     1     165.082 172.243 173.853 -0.06 -0.05    +0.176 A 
ATOM      2  N   UNL     1     165.100 172.306 172.440 -0.08 +0.05    -0.271 N 
ATOM      3  C   UNL     1     164.613 171.253 171.684 -0.15 -0.03    +0.150 A 
ATOM      4  N   UNL     1     164.696 171.478 170.393 -0.15 +0.04    -0.227 NA
ATOM      5  C   UNL     1     165.254 172.720 170.285 -0.24 +0.01    +0.090 A 
ATOM      6  C   UNL     1     165.556 173.437 169.117 -0.35 +0.00    +0.030 A 
ATOM      7  C   UNL     1     166.127 174.706 169.225 -0.23 +0.00    +0.002 A 
ATOM      8  C   UNL     1     166.399 175.251 170.478 -0.24 +0.00    +0.002 A 
ATOM      9  C   UNL     1     166.107 174.551 171.655 -0.14 -0.00    +0.028 A 
ATOM     10  C   UNL     1     164.079 170.086 172.356 -0.28 -0.01    +0.043 A 
ATOM     11  C   UNL     1     164.114 170.098 173.760 -0.26 -0.02    +0.077 A 
ATOM     12  C   UNL     1     163.599 169.003 174.454 -0.30 -0.01    +0.028 A 
ATOM     13  C   UNL     1     163.047 167.920 173.763 -0.30 -0.00    +0.002 A 
ATOM     14  C   UNL     1     163.012 167.922 172.367 -0.28 -0.00    +0.001 A 
ATOM     15  C   UNL     1     163.533 169.005 171.660 -0.24 -0.00    +0.013 A 
ATOM     16  C   UNL     1     165.526 173.276 171.540 -0.14 -0.00    +0.076 A 
ATOM     17  N   UNL     1     164.626 171.197 174.485 -0.11 +0.07    -0.223 NA
ENDROOT
BRANCH   1  18
ATOM     18  S   UNL     1     165.618 173.600 174.835 +0.09 +0.02    -0.078 S 
BRANCH  18  19
ATOM     19  C   UNL     1     164.985 173.122 176.468 -0.18 -0.02    +0.172 C 
BRANCH  19  23
ATOM     20  C   UNL     1     161.296 172.353 175.974 -0.12 +0.05    +0.128 C 
ATOM     21  N   UNL     1     162.734 172.277 176.043 -0.11 -0.04    -0.318 N 
ATOM     22  H   UNL     1     163.210 171.565 175.502 +0.10 -0.01    +0.148 HD
ATOM     23  C   UNL     1     163.481 173.337 176.523 -0.17 +0.05    +0.223 C 
ATOM     24  O   UNL     1     162.977 174.352 176.995 -0.61 -0.22    -0.275 OA
ENDBRANCH  19  23
ENDBRANCH  18  19
ENDBRANCH   1  18
TORSDOF 3
TER
ENDMDL
