MODEL        1
USER    Run = 1
USER
USER    Estimated Free Energy of Binding    =  -4.85 kcal/mol  [=(1)+(2)+(3)-(4)]
USER
USER    (1) Final Intermolecular Energy     =  -6.94 kcal/mol
USER        vdW + Hbond + desolv Energy     =  -6.47 kcal/mol
USER        Electrostatic Energy            =  -0.47 kcal/mol
USER        Moving Ligand-Fixed Receptor    =  -6.94 kcal/mol
USER        Moving Ligand-Moving Receptor   =  +0.00 kcal/mol
USER    (2) Final Total Internal Energy     =  -2.53 kcal/mol
USER    (3) Torsional Free Energy           =  +2.09 kcal/mol
USER    (4) Unbound System's Energy         =  -2.53 kcal/mol
USER
USER
REMARK  Name = Z16035458
REMARK  8 active torsions:
REMARK  status: ('A' for Active; 'I' for Inactive)
REMARK    1  A    between atoms: C_1  and  N_2
REMARK    2  A    between atoms: C_6  and  C_7
REMARK    3  A    between atoms: C_7  and  O_9
REMARK    4  A    between atoms: O_9  and  C_10
REMARK    5  A    between atoms: C_10  and  C_11
REMARK    6  A    between atoms: N_13  and  C_14
REMARK    7  A    between atoms: C_18  and  S_20
REMARK    8  A    between atoms: S_20  and  N_23
REMARK                            x       y       z     vdW  Elec       q    Type
REMARK                         _______ _______ _______ _____ _____    ______ ____
USER                              x       y       z     vdW  Elec       q    Type
USER                           _______ _______ _______ _____ _____    ______ ____
ROOT
ATOM      1  C   UNL     1     161.460 169.870 175.801 -0.37 -0.00    +0.035 A 
ATOM      2  C   UNL     1     162.459 169.388 174.948 -0.22 -0.01    +0.054 A 
ATOM      3  C   UNL     1     163.409 170.271 174.405 -0.12 -0.03    +0.136 A 
ATOM      4  C   UNL     1     163.359 171.635 174.694 -0.13 -0.00    +0.031 A 
ATOM      5  C   UNL     1     162.361 172.117 175.533 -0.28 +0.00    +0.004 A 
ATOM      6  C   UNL     1     161.416 171.241 176.076 -0.34 +0.00    +0.023 A 
ENDROOT
BRANCH   1   8
ATOM      7  C   UNL     1     160.818 167.745 176.954 -0.29 -0.04    +0.255 C 
ATOM      8  N   UNL     1     160.524 168.946 176.326 -0.26 +0.03    -0.283 N 
ATOM      9  H   UNL     1     159.549 169.120 176.104 +0.12 -0.02    +0.155 HD
ATOM     10  O   UNL     1     161.938 167.256 177.091 -0.37 +0.03    -0.272 OA
BRANCH   7  11
ATOM     11  C   UNL     1     159.588 166.991 177.468 +0.14 -0.08    +0.328 C 
BRANCH  11  12
ATOM     12  O   UNL     1     158.442 167.271 176.669 -0.14 +0.17    -0.451 OA
BRANCH  12  13
ATOM     13  C   UNL     1     157.558 168.147 177.223 -0.12 -0.22    +0.356 C 
ATOM     14  O   UNL     1     157.705 169.364 177.213 -0.39 +0.14    -0.243 OA
BRANCH  13  17
ATOM     15  C   UNL     1     156.706 165.275 176.507 -0.34 -0.08    +0.149 C 
ATOM     16  N   UNL     1     156.074 166.129 177.490 -0.18 +0.17    -0.345 N 
ATOM     17  C   UNL     1     156.451 167.420 177.810 -0.38 -0.07    +0.127 A 
ATOM     18  C   UNL     1     155.571 167.841 178.803 -0.37 -0.02    +0.034 A 
ATOM     19  C   UNL     1     154.661 166.796 179.074 -0.41 -0.01    +0.020 A 
ATOM     20  C   UNL     1     154.992 165.751 178.246 -0.27 -0.04    +0.086 A 
ENDBRANCH  13  17
ENDBRANCH  12  13
ENDBRANCH  11  12
ENDBRANCH   7  11
ENDBRANCH   1   8
BRANCH   3  21
ATOM     21  S   UNL     1     164.615 169.679 173.226 -0.39 -0.06    +0.178 S 
ATOM     22  O   UNL     1     165.481 168.764 173.947 -0.30 +0.05    -0.125 OA
ATOM     23  O   UNL     1     165.165 170.858 172.583 -0.35 +0.04    -0.125 OA
BRANCH  21  24
ATOM     24  N   UNL     1     163.738 168.849 172.146 -0.32 -0.02    +0.090 NA
ATOM     25  C   UNL     1     163.338 167.634 172.387 -0.02 -0.08    +0.313 C 
ATOM     26  N   UNL     1     162.636 166.998 171.376 +0.11 +0.14    -0.236 N 
ATOM     27  H   UNL     1     162.356 167.700 170.693 -0.24 -0.29    +0.291 HD
ATOM     28  C   UNL     1     163.326 165.920 170.671 +0.37 -0.11    +0.223 C 
ATOM     29  C   UNL     1     163.098 164.556 171.307 -0.24 -0.02    +0.043 C 
ATOM     30  C   UNL     1     163.085 164.502 172.833 -0.02 -0.00    +0.004 C 
ATOM     31  C   UNL     1     164.074 165.445 173.514 -0.07 -0.00    +0.012 C 
ATOM     32  C   UNL     1     163.524 166.860 173.693 -0.27 -0.03    +0.130 C 
ENDBRANCH  21  24
ENDBRANCH   3  21
TORSDOF 7
TER
ENDMDL
