MODEL        1
USER    Run = 1
USER
USER    Estimated Free Energy of Binding    =  -5.54 kcal/mol  [=(1)+(2)+(3)-(4)]
USER
USER    (1) Final Intermolecular Energy     =  -6.73 kcal/mol
USER        vdW + Hbond + desolv Energy     =  -6.69 kcal/mol
USER        Electrostatic Energy            =  -0.04 kcal/mol
USER        Moving Ligand-Fixed Receptor    =  -6.73 kcal/mol
USER        Moving Ligand-Moving Receptor   =  +0.00 kcal/mol
USER    (2) Final Total Internal Energy     =  -0.88 kcal/mol
USER    (3) Torsional Free Energy           =  +1.19 kcal/mol
USER    (4) Unbound System's Energy         =  -0.88 kcal/mol
USER
USER
REMARK  Name = Z16077664
REMARK  6 active torsions:
REMARK  status: ('A' for Active; 'I' for Inactive)
REMARK    1  A    between atoms: C_1  and  O_2
REMARK    2  A    between atoms: O_2  and  C_3
REMARK    3  A    between atoms: C_8  and  S_9
REMARK    4  A    between atoms: S_9  and  C_10
REMARK    5  A    between atoms: C_10  and  C_11
REMARK    6  A    between atoms: C_10  and  C_12
REMARK                            x       y       z     vdW  Elec       q    Type
REMARK                         _______ _______ _______ _____ _____    ______ ____
USER                              x       y       z     vdW  Elec       q    Type
USER                           _______ _______ _______ _____ _____    ______ ____
ROOT
ATOM      1  C   UNL     1     151.833 166.184 180.594 -0.25 -0.07    +0.137 C 
ATOM      2  C   UNL     1     151.042 166.416 181.894 -0.30 -0.02    +0.029 C 
ENDROOT
BRANCH   1   3
ATOM      3  C   UNL     1     150.882 165.588 179.546 -0.18 -0.09    +0.233 C 
ATOM      4  N   UNL     1     151.376 164.481 178.852 -0.16 +0.08    -0.270 N 
ATOM      5  C   UNL     1     150.668 163.733 177.886 -0.23 -0.01    +0.040 A 
ATOM      6  C   UNL     1     151.499 162.767 177.315 -0.21 +0.01    -0.025 A 
ATOM      7  C   UNL     1     151.054 161.928 176.305 -0.15 -0.00    +0.005 A 
ATOM      8  C   UNL     1     149.736 162.057 175.871 -0.12 -0.00    +0.000 A 
ATOM      9  C   UNL     1     148.888 163.008 176.457 -0.13 -0.00    +0.002 A 
ATOM     10  C   UNL     1     152.865 162.793 177.916 -0.27 -0.02    +0.056 C 
ATOM     11  C   UNL     1     149.353 163.854 177.471 -0.17 -0.00    +0.024 A 
ATOM     12  C   UNL     1     152.741 163.923 178.942 -0.19 -0.04    +0.118 C 
ATOM     13  O   UNL     1     149.743 166.033 179.397 -0.13 +0.08    -0.274 OA
ENDBRANCH   1   3
BRANCH   1  14
ATOM     14  S   UNL     1     152.480 167.810 180.168 -0.39 +0.07    -0.073 S 
BRANCH  14  20
ATOM     15  C   UNL     1     157.918 167.194 177.111 -0.41 -0.05    +0.103 C 
ATOM     16  C   UNL     1     157.192 168.349 177.814 -0.42 -0.07    +0.131 C 
ATOM     17  C   UNL     1     155.869 167.917 178.407 -0.46 -0.05    +0.077 C 
ATOM     18  C   UNL     1     155.445 166.521 178.326 -0.43 -0.05    +0.088 C 
ATOM     19  N   UNL     1     154.250 166.415 178.941 -0.26 +0.14    -0.221 NA
ATOM     20  C   UNL     1     153.991 167.629 179.347 -0.29 -0.17    +0.190 C 
ATOM     21  C   UNL     1     156.167 165.596 177.709 -0.41 -0.02    +0.033 C 
ATOM     22  N   UNL     1     154.939 168.604 179.037 -0.27 +0.20    -0.224 NA
ATOM     23  C   UNL     1     157.420 165.941 177.087 -0.46 -0.02    +0.043 C 
BRANCH  15  25
ATOM     24  C   UNL     1     159.891 168.566 177.167 -0.34 -0.07    +0.276 C 
ATOM     25  O   UNL     1     159.105 167.574 176.503 -0.08 +0.12    -0.499 OA
ENDBRANCH  15  25
ENDBRANCH  14  20
ENDBRANCH   1  14
TORSDOF 4
TER
ENDMDL
