MODEL        1
USER    Run = 1
USER
USER    Estimated Free Energy of Binding    =  -5.34 kcal/mol  [=(1)+(2)+(3)-(4)]
USER
USER    (1) Final Intermolecular Energy     =  -6.53 kcal/mol
USER        vdW + Hbond + desolv Energy     =  -6.46 kcal/mol
USER        Electrostatic Energy            =  -0.07 kcal/mol
USER        Moving Ligand-Fixed Receptor    =  -6.53 kcal/mol
USER        Moving Ligand-Moving Receptor   =  +0.00 kcal/mol
USER    (2) Final Total Internal Energy     =  -0.36 kcal/mol
USER    (3) Torsional Free Energy           =  +1.19 kcal/mol
USER    (4) Unbound System's Energy         =  -0.36 kcal/mol
USER
USER
REMARK  Name = Z16035160
REMARK  4 active torsions:
REMARK  status: ('A' for Active; 'I' for Inactive)
REMARK    1  A    between atoms: C_2  and  C_4
REMARK    2  A    between atoms: C_10  and  C_12
REMARK    3  A    between atoms: C_12  and  S_13
REMARK    4  A    between atoms: S_13  and  C_14
REMARK                            x       y       z     vdW  Elec       q    Type
REMARK                         _______ _______ _______ _____ _____    ______ ____
USER                              x       y       z     vdW  Elec       q    Type
USER                           _______ _______ _______ _____ _____    ______ ____
ROOT
ATOM      1  C   UNL     1     163.104 168.842 172.929 -0.39 -0.02    +0.078 C 
ATOM      2  C   UNL     1     161.995 169.537 173.725 -0.28 -0.00    +0.032 C 
ATOM      3  C   UNL     1     162.254 169.526 175.227 -0.24 -0.01    +0.108 C 
ATOM      4  N   UNL     1     162.486 168.163 175.694 -0.16 +0.04    -0.301 N 
ATOM      5  C   UNL     1     161.836 167.533 176.759 -0.30 -0.02    +0.226 C 
ATOM      6  O   UNL     1     162.109 166.368 177.059 -0.32 +0.04    -0.275 OA
ATOM      7  C   UNL     1     163.609 167.487 175.044 -0.34 -0.03    +0.108 C 
ATOM      8  C   UNL     1     163.445 167.467 173.522 -0.41 -0.01    +0.032 C 
ENDROOT
BRANCH   1  12
ATOM      9  N   UNL     1     165.250 169.622 173.789 -0.13 +0.15    -0.329 N 
ATOM     10  H   UNL     1     165.255 168.841 174.430 +0.08 -0.06    +0.145 HD
ATOM     11  H   UNL     1     166.119 170.128 173.662 -0.15 -0.13    +0.145 HD
ATOM     12  C   UNL     1     164.330 169.735 172.789 -0.24 -0.06    +0.214 C 
ATOM     13  O   UNL     1     164.523 170.503 171.853 -0.24 +0.07    -0.276 OA
ENDBRANCH   1  12
BRANCH   5  14
ATOM     14  C   UNL     1     160.727 168.304 177.492 -0.40 -0.04    +0.170 C 
BRANCH  14  15
ATOM     15  S   UNL     1     159.316 168.657 176.380 -0.47 +0.03    -0.116 S 
BRANCH  15  16
ATOM     16  C   UNL     1     157.974 167.720 177.104 -0.42 -0.00    +0.009 A 
ATOM     17  C   UNL     1     157.832 166.332 177.003 -0.38 -0.01    +0.017 A 
ATOM     18  C   UNL     1     156.716 165.691 177.560 -0.37 -0.02    +0.039 A 
ATOM     19  C   UNL     1     155.744 166.439 178.210 -0.33 -0.06    +0.123 A 
ATOM     20  F   UNL     1     154.675 165.822 178.732 -0.08 +0.10    -0.205 F 
ATOM     21  C   UNL     1     155.858 167.816 178.313 -0.44 -0.02    +0.039 A 
ATOM     22  C   UNL     1     156.971 168.455 177.758 -0.44 -0.01    +0.017 A 
ENDBRANCH  15  16
ENDBRANCH  14  15
ENDBRANCH   5  14
TORSDOF 4
TER
ENDMDL
