MODEL        1
USER    Run = 1
USER
USER    Estimated Free Energy of Binding    =  -4.21 kcal/mol  [=(1)+(2)+(3)-(4)]
USER
USER    (1) Final Intermolecular Energy     =  -5.70 kcal/mol
USER        vdW + Hbond + desolv Energy     =  -5.72 kcal/mol
USER        Electrostatic Energy            =  +0.02 kcal/mol
USER        Moving Ligand-Fixed Receptor    =  -5.70 kcal/mol
USER        Moving Ligand-Moving Receptor   =  +0.00 kcal/mol
USER    (2) Final Total Internal Energy     =  -2.23 kcal/mol
USER    (3) Torsional Free Energy           =  +1.49 kcal/mol
USER    (4) Unbound System's Energy         =  -2.23 kcal/mol
USER
USER
REMARK  Name = Z16035455
REMARK  7 active torsions:
REMARK  status: ('A' for Active; 'I' for Inactive)
REMARK    1  A    between atoms: C_1  and  C_2
REMARK    2  A    between atoms: C_4  and  N_5
REMARK    3  A    between atoms: C_6  and  C_8
REMARK    4  A    between atoms: C_8  and  O_9
REMARK    5  A    between atoms: O_9  and  C_10
REMARK    6  A    between atoms: C_10  and  C_12
REMARK    7  A    between atoms: N_16  and  C_17
REMARK                            x       y       z     vdW  Elec       q    Type
REMARK                         _______ _______ _______ _____ _____    ______ ____
USER                              x       y       z     vdW  Elec       q    Type
USER                           _______ _______ _______ _____ _____    ______ ____
ROOT
ATOM      1  N   UNL     1     155.985 166.506 177.923 -0.26 +0.13    -0.266 N 
ATOM      2  H   UNL     1     156.407 167.333 178.323 +0.11 -0.08    +0.156 HD
ATOM      3  C   UNL     1     156.691 165.770 176.984 -0.28 -0.13    +0.256 C 
ATOM      4  O   UNL     1     156.340 164.709 176.476 -0.18 +0.15    -0.272 OA
ENDROOT
BRANCH   1  12
ATOM      5  C   UNL     1     152.760 163.032 178.564 -0.21 -0.02    +0.067 C 
ATOM      6  C   UNL     1     153.126 164.465 178.807 -0.27 -0.02    +0.059 A 
ATOM      7  C   UNL     1     152.310 165.340 179.518 -0.27 -0.03    +0.063 A 
ATOM      8 CL   UNL     1     150.802 164.857 180.193 -0.48 +0.01    -0.082 Cl
ATOM      9  C   UNL     1     152.733 166.656 179.686 -0.26 -0.03    +0.045 A 
ATOM     10  C   UNL     1     153.959 167.057 179.146 -0.30 -0.07    +0.082 A 
ATOM     11 CL   UNL     1     154.457 168.697 179.350 -0.31 +0.08    -0.080 Cl
ATOM     12  C   UNL     1     154.736 166.124 178.454 -0.26 -0.08    +0.144 A 
ATOM     13  N   UNL     1     154.314 164.857 178.283 -0.20 +0.10    -0.234 NA
ENDBRANCH   1  12
BRANCH   3  14
ATOM     14  C   UNL     1     158.033 166.386 176.586 +0.03 -0.13    +0.328 C 
BRANCH  14  15
ATOM     15  O   UNL     1     158.523 167.263 177.602 -0.03 +0.16    -0.451 OA
BRANCH  15  16
ATOM     16  C   UNL     1     158.321 168.588 177.357 -0.21 -0.16    +0.356 C 
ATOM     17  O   UNL     1     157.346 169.215 177.755 -0.41 +0.14    -0.243 OA
BRANCH  16  18
ATOM     18  C   UNL     1     159.411 169.115 176.559 -0.31 -0.03    +0.127 A 
ATOM     19  N   UNL     1     160.727 168.690 176.610 -0.21 +0.04    -0.345 N 
ATOM     20  C   UNL     1     161.255 167.656 177.476 -0.38 -0.02    +0.149 C 
ATOM     21  C   UNL     1     161.489 169.395 175.713 -0.33 -0.01    +0.086 A 
ATOM     22  C   UNL     1     160.671 170.285 175.061 -0.44 +0.00    +0.020 A 
ATOM     23  C   UNL     1     159.371 170.112 175.590 -0.28 -0.00    +0.034 A 
ENDBRANCH  16  18
ENDBRANCH  15  16
ENDBRANCH  14  15
ENDBRANCH   3  14
TORSDOF 5
TER
ENDMDL
