MODEL        1
USER    Run = 1
USER
USER    Estimated Free Energy of Binding    =  -5.11 kcal/mol  [=(1)+(2)+(3)-(4)]
USER
USER    (1) Final Intermolecular Energy     =  -6.60 kcal/mol
USER        vdW + Hbond + desolv Energy     =  -6.51 kcal/mol
USER        Electrostatic Energy            =  -0.09 kcal/mol
USER        Moving Ligand-Fixed Receptor    =  -6.60 kcal/mol
USER        Moving Ligand-Moving Receptor   =  +0.00 kcal/mol
USER    (2) Final Total Internal Energy     =  -1.38 kcal/mol
USER    (3) Torsional Free Energy           =  +1.49 kcal/mol
USER    (4) Unbound System's Energy         =  -1.38 kcal/mol
USER
USER
REMARK  Name = Z16076700
REMARK  6 active torsions:
REMARK  status: ('A' for Active; 'I' for Inactive)
REMARK    1  A    between atoms: C_1  and  O_2
REMARK    2  A    between atoms: O_2  and  C_3
REMARK    3  A    between atoms: C_8  and  S_9
REMARK    4  A    between atoms: S_9  and  C_10
REMARK    5  A    between atoms: C_10  and  C_11
REMARK    6  A    between atoms: N_13  and  C_14
REMARK                            x       y       z     vdW  Elec       q    Type
REMARK                         _______ _______ _______ _____ _____    ______ ____
USER                              x       y       z     vdW  Elec       q    Type
USER                           _______ _______ _______ _____ _____    ______ ____
ROOT
ATOM      1  C   UNL     1     151.932 165.289 180.587 -0.22 -0.09    +0.228 C 
ATOM      2  N   UNL     1     152.395 164.861 179.350 -0.16 +0.11    -0.285 N 
ATOM      3  H   UNL     1     153.297 165.208 179.043 +0.09 -0.07    +0.155 HD
ATOM      4  O   UNL     1     150.938 164.853 181.165 -0.33 +0.05    -0.275 OA
ENDROOT
BRANCH   2   5
ATOM      5  C   UNL     1     151.734 163.968 178.476 -0.28 -0.01    +0.037 A 
ATOM      6  C   UNL     1     152.327 162.724 178.218 -0.24 -0.02    +0.072 A 
ATOM      7  C   UNL     1     151.739 161.829 177.315 -0.14 -0.04    +0.164 A 
ATOM      8  C   UNL     1     150.544 162.158 176.675 -0.11 -0.04    +0.162 A 
ATOM      9  O   UNL     1     149.884 161.305 175.837 -0.01 +0.12    -0.488 OA
ATOM     10  C   UNL     1     150.643 161.021 174.660 -0.06 -0.07    +0.232 C 
ATOM     11  C   UNL     1     151.675 159.929 174.897 -0.06 -0.03    +0.082 C 
ATOM     12  C   UNL     1     152.785 160.395 175.829 -0.05 -0.08    +0.232 C 
ATOM     13  C   UNL     1     149.931 163.376 176.952 -0.16 -0.01    +0.051 A 
ATOM     14  O   UNL     1     152.334 160.604 177.168 -0.01 +0.16    -0.488 OA
ATOM     15  C   UNL     1     150.527 164.279 177.838 -0.24 -0.01    +0.027 A 
ENDBRANCH   2   5
BRANCH   1  16
ATOM     16  C   UNL     1     152.776 166.373 181.238 -0.26 -0.11    +0.173 C 
BRANCH  16  17
ATOM     17  S   UNL     1     152.817 167.855 180.191 -0.42 +0.07    -0.077 S 
BRANCH  17  23
ATOM     18  C   UNL     1     158.220 167.543 177.095 -0.41 -0.04    +0.103 C 
ATOM     19  C   UNL     1     157.348 168.605 177.751 -0.41 -0.07    +0.131 C 
ATOM     20  C   UNL     1     156.099 168.012 178.341 -0.43 -0.05    +0.077 C 
ATOM     21  C   UNL     1     155.806 166.587 178.274 -0.44 -0.04    +0.088 C 
ATOM     22  N   UNL     1     154.612 166.367 178.890 -0.27 +0.13    -0.221 NA
ATOM     23  C   UNL     1     154.263 167.564 179.280 -0.31 -0.16    +0.190 C 
ATOM     24  C   UNL     1     156.657 165.747 177.698 -0.44 -0.01    +0.033 C 
ATOM     25  N   UNL     1     155.128 168.607 178.975 -0.29 +0.19    -0.224 NA
ATOM     26  C   UNL     1     157.878 166.234 177.094 -0.42 -0.02    +0.043 C 
BRANCH  18  28
ATOM     27  C   UNL     1     160.217 168.852 177.340 -0.33 -0.06    +0.276 C 
ATOM     28  O   UNL     1     159.358 168.067 176.518 -0.11 +0.11    -0.499 OA
ENDBRANCH  18  28
ENDBRANCH  17  23
ENDBRANCH  16  17
ENDBRANCH   1  16
TORSDOF 5
TER
ENDMDL
