MODEL        1
USER    Run = 1
USER
USER    Estimated Free Energy of Binding    =  -4.34 kcal/mol  [=(1)+(2)+(3)-(4)]
USER
USER    (1) Final Intermolecular Energy     =  -6.72 kcal/mol
USER        vdW + Hbond + desolv Energy     =  -6.76 kcal/mol
USER        Electrostatic Energy            =  +0.04 kcal/mol
USER        Moving Ligand-Fixed Receptor    =  -6.72 kcal/mol
USER        Moving Ligand-Moving Receptor   =  +0.00 kcal/mol
USER    (2) Final Total Internal Energy     =  -1.58 kcal/mol
USER    (3) Torsional Free Energy           =  +2.39 kcal/mol
USER    (4) Unbound System's Energy         =  -1.58 kcal/mol
USER
USER
REMARK  Name = Z16021341
REMARK  9 active torsions:
REMARK  status: ('A' for Active; 'I' for Inactive)
REMARK    1  A    between atoms: C_1  and  C_2
REMARK    2  A    between atoms: C_2  and  C_3
REMARK    3  A    between atoms: C_3  and  O_4
REMARK    4  A    between atoms: O_4  and  C_5
REMARK    5  A    between atoms: C_8  and  O_9
REMARK    6  A    between atoms: O_9  and  C_10
REMARK    7  A    between atoms: C_10  and  C_11
REMARK    8  A    between atoms: N_13  and  C_14
REMARK    9  A    between atoms: C_17  and  C_20
REMARK                            x       y       z     vdW  Elec       q    Type
REMARK                         _______ _______ _______ _____ _____    ______ ____
USER                              x       y       z     vdW  Elec       q    Type
USER                           _______ _______ _______ _____ _____    ______ ____
ROOT
ATOM      1  C   UNL     1     165.138 169.211 174.339 -0.17 -0.11    +0.255 C 
ATOM      2  N   UNL     1     164.534 169.646 173.163 -0.18 +0.09    -0.283 N 
ATOM      3  H   UNL     1     163.729 169.097 172.872 +0.11 -0.04    +0.155 HD
ATOM      4  O   UNL     1     166.113 169.723 174.887 -0.29 +0.19    -0.272 OA
ENDROOT
BRANCH   2   5
ATOM      5  C   UNL     1     164.894 170.753 172.368 -0.28 -0.01    +0.034 A 
ATOM      6  C   UNL     1     164.326 170.874 171.093 -0.18 -0.01    +0.024 A 
ATOM      7  C   UNL     1     164.630 171.974 170.267 -0.29 -0.00    +0.015 A 
ATOM      8  C   UNL     1     165.510 172.965 170.712 -0.22 +0.00    +0.037 A 
ATOM      9  C   UNL     1     166.087 172.829 171.978 -0.13 -0.00    +0.015 A 
ATOM     10  C   UNL     1     165.782 171.736 172.795 -0.21 -0.01    +0.024 A 
BRANCH   8  11
ATOM     11  C   UNL     1     165.879 174.181 169.929 -0.19 +0.03    +0.241 C 
ATOM     12  N   UNL     1     165.676 174.187 168.580 +0.10 +0.04    -0.325 N 
ATOM     13  H   UNL     1     165.909 175.042 168.093 -0.36 -0.04    +0.145 HD
ATOM     14  H   UNL     1     165.254 173.444 168.053 -0.49 -0.07    +0.145 HD
ATOM     15  O   UNL     1     166.348 175.178 170.467 -0.20 -0.01    -0.270 OA
ENDBRANCH   8  11
ENDBRANCH   2   5
BRANCH   1  16
ATOM     16  C   UNL     1     164.478 167.983 174.959 -0.07 -0.10    +0.325 C 
BRANCH  16  17
ATOM     17  O   UNL     1     163.119 167.930 174.553 -0.12 +0.09    -0.483 OA
BRANCH  17  21
ATOM     18  C   UNL     1     160.062 168.795 177.234 -0.40 -0.03    +0.121 A 
ATOM     19  C   UNL     1     160.803 167.625 177.433 -0.41 -0.01    +0.049 A 
ATOM     20  C   UNL     1     161.870 167.303 176.579 -0.36 -0.01    +0.049 A 
ATOM     21  C   UNL     1     162.188 168.153 175.521 -0.23 -0.01    +0.121 A 
ATOM     22  C   UNL     1     161.463 169.322 175.331 -0.33 -0.00    +0.049 A 
ATOM     23  C   UNL     1     160.416 169.646 176.184 -0.42 -0.00    +0.049 A 
BRANCH  18  24
ATOM     24  O   UNL     1     159.010 169.019 178.094 -0.13 +0.18    -0.492 OA
BRANCH  24  25
ATOM     25  C   UNL     1     157.729 168.945 177.464 -0.30 -0.12    +0.228 C 
BRANCH  25  27
ATOM     26  C   UNL     1     157.384 166.539 176.956 -0.50 -0.00    +0.007 C 
ATOM     27  C   UNL     1     156.967 167.689 177.862 -0.51 -0.02    +0.037 C 
ENDBRANCH  25  27
ENDBRANCH  24  25
ENDBRANCH  18  24
ENDBRANCH  17  21
ENDBRANCH  16  17
ENDBRANCH   1  16
TORSDOF 8
TER
ENDMDL
