MODEL        1
USER    Run = 1
USER
USER    Estimated Free Energy of Binding    =  -6.37 kcal/mol  [=(1)+(2)+(3)-(4)]
USER
USER    (1) Final Intermolecular Energy     =  -7.86 kcal/mol
USER        vdW + Hbond + desolv Energy     =  -7.65 kcal/mol
USER        Electrostatic Energy            =  -0.21 kcal/mol
USER        Moving Ligand-Fixed Receptor    =  -7.86 kcal/mol
USER        Moving Ligand-Moving Receptor   =  +0.00 kcal/mol
USER    (2) Final Total Internal Energy     =  -0.45 kcal/mol
USER    (3) Torsional Free Energy           =  +1.49 kcal/mol
USER    (4) Unbound System's Energy         =  -0.45 kcal/mol
USER
USER
REMARK  Name = Z16077457
REMARK  6 active torsions:
REMARK  status: ('A' for Active; 'I' for Inactive)
REMARK    1  A    between atoms: C_1  and  O_2
REMARK    2  A    between atoms: O_2  and  C_3
REMARK    3  A    between atoms: C_8  and  S_9
REMARK    4  A    between atoms: S_9  and  C_10
REMARK    5  A    between atoms: C_10  and  C_11
REMARK    6  A    between atoms: N_16  and  C_17
REMARK                            x       y       z     vdW  Elec       q    Type
REMARK                         _______ _______ _______ _____ _____    ______ ____
USER                              x       y       z     vdW  Elec       q    Type
USER                           _______ _______ _______ _____ _____    ______ ____
ROOT
ATOM      1  C   UNL     1     157.429 168.206 177.636 -0.38 -0.10    +0.173 C 
ENDROOT
BRANCH   1   2
ATOM      2  C   UNL     1     158.836 168.292 177.069 -0.33 -0.08    +0.231 C 
ATOM      3  N   UNL     1     159.051 169.365 176.221 -0.25 +0.06    -0.239 N 
ATOM      4  H   UNL     1     158.312 170.053 176.122 +0.09 -0.06    +0.159 HD
ATOM      5  C   UNL     1     160.215 169.755 175.609 -0.26 -0.01    +0.306 C 
ATOM      6  N   UNL     1     161.230 168.848 175.632 -0.16 +0.01    -0.296 N 
ATOM      7  H   UNL     1     161.131 168.082 176.296 +0.10 -0.01    +0.150 HD
ATOM      8  O   UNL     1     160.278 170.850 175.058 -0.42 -0.01    -0.252 OA
ATOM      9  O   UNL     1     159.688 167.439 177.317 -0.30 +0.07    -0.274 OA
BRANCH   6  10
ATOM     10  C   UNL     1     162.519 169.087 175.028 -0.26 -0.01    +0.074 C 
ATOM     11  C   UNL     1     162.412 169.389 173.532 -0.37 -0.00    +0.022 C 
ATOM     12  C   UNL     1     163.704 168.866 172.903 -0.45 -0.00    +0.002 C 
ATOM     13  C   UNL     1     164.495 168.219 174.035 -0.51 -0.00    +0.002 C 
ATOM     14  C   UNL     1     163.447 167.878 175.085 -0.43 -0.00    +0.022 C 
ENDBRANCH   6  10
ENDBRANCH   1   2
BRANCH   1  15
ATOM     15  S   UNL     1     156.638 166.625 177.250 -0.63 +0.04    -0.077 S 
BRANCH  15  21
ATOM     16  C   UNL     1     151.550 166.029 180.762 -0.28 -0.05    +0.103 C 
ATOM     17  C   UNL     1     152.328 165.218 179.749 -0.28 -0.06    +0.131 C 
ATOM     18  C   UNL     1     153.481 165.993 179.195 -0.34 -0.05    +0.077 C 
ATOM     19  C   UNL     1     153.727 167.387 179.537 -0.35 -0.08    +0.088 C 
ATOM     20  N   UNL     1     154.866 167.780 178.893 -0.31 +0.17    -0.221 NA
ATOM     21  C   UNL     1     155.208 166.709 178.227 -0.35 -0.11    +0.190 C 
ATOM     22  C   UNL     1     152.909 168.030 180.369 -0.33 -0.03    +0.033 C 
ATOM     23  N   UNL     1     154.402 165.592 178.368 -0.22 +0.11    -0.224 NA
ATOM     24  C   UNL     1     151.813 167.330 181.007 -0.27 -0.03    +0.043 C 
BRANCH  16  26
ATOM     25  C   UNL     1     149.494 165.992 181.974 -0.21 -0.10    +0.276 C 
ATOM     26  O   UNL     1     150.591 165.277 181.413 -0.17 +0.12    -0.499 OA
ENDBRANCH  16  26
ENDBRANCH  15  21
ENDBRANCH   1  15
TORSDOF 5
TER
ENDMDL
