MODEL        1
USER    Run = 1
USER
USER    Estimated Free Energy of Binding    =  -4.77 kcal/mol  [=(1)+(2)+(3)-(4)]
USER
USER    (1) Final Intermolecular Energy     =  -6.86 kcal/mol
USER        vdW + Hbond + desolv Energy     =  -6.88 kcal/mol
USER        Electrostatic Energy            =  +0.02 kcal/mol
USER        Moving Ligand-Fixed Receptor    =  -6.86 kcal/mol
USER        Moving Ligand-Moving Receptor   =  +0.00 kcal/mol
USER    (2) Final Total Internal Energy     =  -2.16 kcal/mol
USER    (3) Torsional Free Energy           =  +2.09 kcal/mol
USER    (4) Unbound System's Energy         =  -2.16 kcal/mol
USER
USER
REMARK  Name = Z16128352
REMARK  9 active torsions:
REMARK  status: ('A' for Active; 'I' for Inactive)
REMARK    1  A    between atoms: C_1  and  C_2
REMARK    2  A    between atoms: C_2  and  O_3
REMARK    3  A    between atoms: C_2  and  C_14
REMARK    4  A    between atoms: O_3  and  C_4
REMARK    5  A    between atoms: C_4  and  C_6
REMARK    6  A    between atoms: C_9  and  C_10
REMARK    7  A    between atoms: C_12  and  O_13
REMARK    8  A    between atoms: N_16  and  C_17
REMARK    9  A    between atoms: C_20  and  C_23
REMARK                            x       y       z     vdW  Elec       q    Type
REMARK                         _______ _______ _______ _____ _____    ______ ____
USER                              x       y       z     vdW  Elec       q    Type
USER                           _______ _______ _______ _____ _____    ______ ____
ROOT
ATOM      1  C   UNL     1     159.882 169.783 175.604 -0.26 -0.01    +0.258 C 
ATOM      2  N   UNL     1     159.853 168.642 176.391 -0.24 +0.04    -0.282 N 
ATOM      3  H   UNL     1     160.637 168.012 176.239 +0.11 -0.01    +0.155 HD
ATOM      4  O   UNL     1     158.891 170.432 175.274 -0.39 +0.03    -0.271 OA
ENDROOT
BRANCH   2   5
ATOM      5  C   UNL     1     158.657 168.114 176.912 -0.39 -0.01    +0.034 A 
ATOM      6  C   UNL     1     158.335 166.758 176.797 -0.28 -0.01    +0.024 A 
ATOM      7  C   UNL     1     157.145 166.257 177.345 -0.43 -0.01    +0.015 A 
ATOM      8  C   UNL     1     156.283 167.108 178.045 -0.44 -0.02    +0.037 A 
ATOM      9  C   UNL     1     156.612 168.469 178.148 -0.33 -0.01    +0.015 A 
ATOM     10  C   UNL     1     157.774 168.976 177.558 -0.41 -0.01    +0.024 A 
BRANCH   8  11
ATOM     11  C   UNL     1     155.022 166.652 178.702 -0.31 -0.14    +0.241 C 
ATOM     12  N   UNL     1     154.532 167.365 179.761 -0.18 +0.28    -0.325 N 
ATOM     13  H   UNL     1     153.672 167.028 180.172 +0.07 -0.12    +0.145 HD
ATOM     14  H   UNL     1     154.945 168.198 180.146 -0.48 -0.19    +0.145 HD
ATOM     15  O   UNL     1     154.425 165.655 178.313 -0.27 +0.14    -0.270 OA
ENDBRANCH   8  11
ENDBRANCH   2   5
BRANCH   1  17
ATOM     16  C   UNL     1     161.537 171.601 175.771 -0.38 +0.01    +0.062 C 
ATOM     17  C   UNL     1     161.293 170.219 175.179 -0.30 -0.01    +0.259 C 
BRANCH  17  18
ATOM     18  O   UNL     1     162.289 169.294 175.642 +0.01 +0.05    -0.449 OA
BRANCH  18  19
ATOM     19  C   UNL     1     162.857 168.537 174.668 -0.15 -0.05    +0.343 C 
ATOM     20  O   UNL     1     162.759 167.324 174.557 -0.25 +0.04    -0.245 OA
BRANCH  19  21
ATOM     21  C   UNL     1     163.596 169.362 173.679 -0.29 -0.02    +0.100 A 
ATOM     22  C   UNL     1     163.458 169.216 172.297 -0.25 -0.03    +0.131 A 
ATOM     23  C   UNL     1     164.113 170.099 171.429 -0.16 -0.01    +0.049 A 
ATOM     24  C   UNL     1     164.904 171.144 171.935 -0.26 +0.01    -0.047 A 
ATOM     25  C   UNL     1     165.552 172.112 170.986 -0.25 +0.00    +0.044 C 
ATOM     26  C   UNL     1     165.048 171.281 173.322 -0.26 -0.00    +0.004 A 
ATOM     27  C   UNL     1     164.401 170.402 174.180 -0.23 -0.01    +0.019 A 
BRANCH  22  28
ATOM     28  O   UNL     1     162.655 168.243 171.765 -0.13 +0.18    -0.506 OA
ATOM     29  H   UNL     1     162.563 167.525 172.415 +0.24 -0.07    +0.292 HD
ENDBRANCH  22  28
ENDBRANCH  19  21
ENDBRANCH  18  19
ENDBRANCH  17  18
ENDBRANCH   1  17
TORSDOF 7
TER
ENDMDL
