MODEL        1
USER    Run = 1
USER
USER    Estimated Free Energy of Binding    =  -4.49 kcal/mol  [=(1)+(2)+(3)-(4)]
USER
USER    (1) Final Intermolecular Energy     =  -5.98 kcal/mol
USER        vdW + Hbond + desolv Energy     =  -5.86 kcal/mol
USER        Electrostatic Energy            =  -0.12 kcal/mol
USER        Moving Ligand-Fixed Receptor    =  -5.98 kcal/mol
USER        Moving Ligand-Moving Receptor   =  +0.00 kcal/mol
USER    (2) Final Total Internal Energy     =  -1.51 kcal/mol
USER    (3) Torsional Free Energy           =  +1.49 kcal/mol
USER    (4) Unbound System's Energy         =  -1.51 kcal/mol
USER
USER
REMARK  Name = Z16117185
REMARK  7 active torsions:
REMARK  status: ('A' for Active; 'I' for Inactive)
REMARK    1  A    between atoms: C_1  and  O_2
REMARK    2  A    between atoms: O_2  and  C_3
REMARK    3  A    between atoms: C_8  and  C_9
REMARK    4  A    between atoms: C_9  and  C_10
REMARK    5  A    between atoms: C_10  and  C_11
REMARK    6  A    between atoms: N_15  and  C_16
REMARK    7  A    between atoms: C_16  and  C_17
REMARK                            x       y       z     vdW  Elec       q    Type
REMARK                         _______ _______ _______ _____ _____    ______ ____
USER                              x       y       z     vdW  Elec       q    Type
USER                           _______ _______ _______ _____ _____    ______ ____
ROOT
ATOM      1  C   UNL     1     164.692 173.032 174.964 -0.14 -0.02    +0.114 C 
ATOM      2  C   UNL     1     165.173 171.580 174.736 -0.06 -0.09    +0.247 C 
ATOM      3  O   UNL     1     166.113 171.001 175.269 -0.22 +0.16    -0.273 OA
ATOM      4  N   UNL     1     164.605 171.134 173.586 -0.15 +0.06    -0.215 N 
ATOM      5  C   UNL     1     164.625 172.222 172.762 +0.02 -0.06    +0.310 C 
ATOM      6  O   UNL     1     164.526 172.235 171.549 -0.16 +0.04    -0.252 OA
ATOM      7  N   UNL     1     164.895 173.354 173.548 -0.02 +0.05    -0.285 N 
ATOM      8  H   UNL     1     164.753 174.266 173.130 +0.08 -0.03    +0.151 HD
ATOM      9  C   UNL     1     163.179 173.206 175.213 -0.22 +0.01    +0.042 C 
ENDROOT
BRANCH   1  10
ATOM     10  C   UNL     1     165.543 173.775 176.024 -0.16 -0.01    +0.074 C 
BRANCH  10  12
ATOM     11  C   UNL     1     164.418 176.061 176.491 -0.05 +0.06    +0.123 A 
ATOM     12  C   UNL     1     165.438 175.305 175.887 -0.11 -0.00    -0.003 A 
ATOM     13  C   UNL     1     166.467 176.012 175.235 -0.04 -0.00    +0.007 A 
ATOM     14  C   UNL     1     166.590 177.396 175.314 -0.04 -0.00    +0.001 A 
ATOM     15  C   UNL     1     165.617 178.126 175.965 -0.00 +0.00    +0.004 A 
ATOM     16  C   UNL     1     164.518 177.464 176.518 -0.02 +0.02    +0.046 A 
BRANCH  11  18
ATOM     17  C   UNL     1     163.390 175.245 178.473 -0.10 +0.12    +0.277 C 
ATOM     18  O   UNL     1     163.378 175.366 177.052 -0.57 -0.41    -0.495 OA
ENDBRANCH  11  18
ENDBRANCH  10  12
ENDBRANCH   1  10
BRANCH   4  19
ATOM     19  C   UNL     1     164.831 169.776 173.140 -0.22 -0.07    +0.214 C 
BRANCH  19  20
ATOM     20  C   UNL     1     164.276 168.743 174.156 -0.28 -0.07    +0.238 C 
ATOM     21  N   UNL     1     162.900 168.843 174.451 -0.19 +0.04    -0.270 N 
ATOM     22  C   UNL     1     162.297 168.183 175.587 -0.31 -0.00    +0.040 A 
ATOM     23  C   UNL     1     161.151 168.760 176.191 -0.39 +0.00    -0.026 A 
ATOM     24  C   UNL     1     160.568 168.162 177.323 -0.47 -0.00    +0.005 A 
ATOM     25  C   UNL     1     161.105 167.002 177.868 -0.27 -0.00    +0.000 A 
ATOM     26  C   UNL     1     162.218 166.418 177.273 -0.28 -0.00    +0.002 A 
ATOM     27  C   UNL     1     160.514 170.025 175.669 -0.52 -0.00    +0.038 C 
ATOM     28  C   UNL     1     161.409 170.760 174.685 -0.23 -0.00    +0.024 C 
ATOM     29  C   UNL     1     162.806 167.002 176.144 -0.18 -0.00    +0.024 A 
ATOM     30  C   UNL     1     161.992 169.745 173.724 -0.18 -0.01    +0.114 C 
ATOM     31  O   UNL     1     165.048 167.950 174.702 -0.37 +0.10    -0.274 OA
ENDBRANCH  19  20
ENDBRANCH   4  19
TORSDOF 5
TER
ENDMDL
