MODEL        1
USER    Run = 1
USER
USER    Estimated Free Energy of Binding    =  -5.12 kcal/mol  [=(1)+(2)+(3)-(4)]
USER
USER    (1) Final Intermolecular Energy     =  -7.21 kcal/mol
USER        vdW + Hbond + desolv Energy     =  -7.18 kcal/mol
USER        Electrostatic Energy            =  -0.04 kcal/mol
USER        Moving Ligand-Fixed Receptor    =  -7.21 kcal/mol
USER        Moving Ligand-Moving Receptor   =  +0.00 kcal/mol
USER    (2) Final Total Internal Energy     =  -2.47 kcal/mol
USER    (3) Torsional Free Energy           =  +2.09 kcal/mol
USER    (4) Unbound System's Energy         =  -2.47 kcal/mol
USER
USER
REMARK  Name = Z16128787
REMARK  10 active torsions:
REMARK  status: ('A' for Active; 'I' for Inactive)
REMARK    1  A    between atoms: C_1  and  C_2
REMARK    2  A    between atoms: C_3  and  N_4
REMARK    3  A    between atoms: C_5  and  C_7
REMARK    4  A    between atoms: C_7  and  O_8
REMARK    5  A    between atoms: O_8  and  C_9
REMARK    6  A    between atoms: C_9  and  C_11
REMARK    7  A    between atoms: C_14  and  C_15
REMARK    8  A    between atoms: C_17  and  O_18
REMARK    9  A    between atoms: N_21  and  C_22
REMARK   10  A    between atoms: N_28  and  C_29
REMARK                            x       y       z     vdW  Elec       q    Type
REMARK                         _______ _______ _______ _____ _____    ______ ____
USER                              x       y       z     vdW  Elec       q    Type
USER                           _______ _______ _______ _____ _____    ______ ____
ROOT
ATOM      1  N   UNL     1     157.115 168.230 177.125 -0.22 +0.20    -0.277 N 
ATOM      2  H   UNL     1     156.756 169.182 177.210 +0.02 -0.11    +0.155 HD
ATOM      3  C   UNL     1     158.477 168.100 176.906 -0.24 -0.11    +0.255 C 
ATOM      4  O   UNL     1     159.137 167.098 177.181 -0.29 +0.07    -0.272 OA
ENDROOT
BRANCH   1  12
ATOM      5  C   UNL     1     156.893 165.187 176.103 -0.38 -0.04    +0.067 C 
ATOM      6  C   UNL     1     156.127 165.943 177.145 -0.30 -0.03    +0.059 A 
ATOM      7  N   UNL     1     155.074 165.311 177.809 -0.12 +0.13    -0.282 N 
ATOM      8  C   UNL     1     154.888 163.875 177.847 +0.13 -0.07    +0.171 C 
ATOM      9  N   UNL     1     154.440 166.260 178.659 -0.26 +0.13    -0.216 N 
ATOM     10  C   UNL     1     155.130 167.482 178.483 -0.20 -0.19    +0.293 A 
ATOM     11  O   UNL     1     154.950 168.586 178.980 -0.38 +0.23    -0.264 OA
ATOM     12  C   UNL     1     156.248 167.232 177.499 -0.39 -0.07    +0.121 A 
BRANCH   9  13
ATOM     13  C   UNL     1     153.358 166.005 179.567 -0.29 -0.04    +0.067 A 
ATOM     14  C   UNL     1     153.215 166.645 180.807 -0.34 -0.02    +0.028 A 
ATOM     15  C   UNL     1     152.056 166.522 181.590 -0.25 -0.00    +0.002 A 
ATOM     16  C   UNL     1     151.041 165.664 181.199 -0.36 -0.00    +0.000 A 
ATOM     17  C   UNL     1     151.204 164.914 180.043 -0.32 -0.00    +0.002 A 
ATOM     18  C   UNL     1     152.343 165.088 179.236 -0.30 -0.01    +0.028 A 
ENDBRANCH   9  13
ENDBRANCH   1  12
BRANCH   3  19
ATOM     19  C   UNL     1     159.175 169.371 176.411 -0.11 -0.08    +0.328 C 
BRANCH  19  20
ATOM     20  O   UNL     1     160.428 169.642 177.025 -0.20 +0.06    -0.452 OA
BRANCH  20  21
ATOM     21  C   UNL     1     161.367 170.204 176.227 -0.13 -0.01    +0.343 C 
ATOM     22  O   UNL     1     161.566 171.399 176.082 -0.34 -0.02    -0.245 OA
BRANCH  21  23
ATOM     23  C   UNL     1     162.100 169.146 175.486 -0.15 -0.01    +0.100 A 
ATOM     24  C   UNL     1     162.272 167.850 175.989 -0.27 -0.01    +0.131 A 
ATOM     25  C   UNL     1     162.935 166.880 175.231 -0.16 -0.01    +0.049 A 
ATOM     26  C   UNL     1     163.455 167.199 173.969 -0.33 +0.01    -0.047 A 
ATOM     27  C   UNL     1     164.150 166.137 173.168 -0.33 -0.02    +0.044 C 
ATOM     28  C   UNL     1     163.323 168.507 173.485 -0.39 -0.00    +0.004 A 
ATOM     29  C   UNL     1     162.646 169.473 174.237 -0.34 -0.00    +0.019 A 
BRANCH  24  30
ATOM     30  O   UNL     1     161.827 167.518 177.241 -0.16 +0.06    -0.506 OA
ATOM     31  H   UNL     1     161.053 168.061 177.465 +0.22 -0.05    +0.292 HD
ENDBRANCH  24  30
ENDBRANCH  21  23
ENDBRANCH  20  21
ENDBRANCH  19  20
ENDBRANCH   3  19
TORSDOF 7
TER
ENDMDL
