MODEL        1
USER    Run = 1
USER
USER    Estimated Free Energy of Binding    =  -3.14 kcal/mol  [=(1)+(2)+(3)-(4)]
USER
USER    (1) Final Intermolecular Energy     =  -4.33 kcal/mol
USER        vdW + Hbond + desolv Energy     =  -3.95 kcal/mol
USER        Electrostatic Energy            =  -0.38 kcal/mol
USER        Moving Ligand-Fixed Receptor    =  -4.33 kcal/mol
USER        Moving Ligand-Moving Receptor   =  +0.00 kcal/mol
USER    (2) Final Total Internal Energy     =  -1.67 kcal/mol
USER    (3) Torsional Free Energy           =  +1.19 kcal/mol
USER    (4) Unbound System's Energy         =  -1.67 kcal/mol
USER
USER
REMARK  Name = Z16164489
REMARK  4 active torsions:
REMARK  status: ('A' for Active; 'I' for Inactive)
REMARK    1  A    between atoms: C_2  and  C_3
REMARK    2  A    between atoms: C_3  and  O_4
REMARK    3  A    between atoms: O_4  and  C_5
REMARK    4  A    between atoms: N_17  and  C_18
REMARK                            x       y       z     vdW  Elec       q    Type
REMARK                         _______ _______ _______ _____ _____    ______ ____
USER                              x       y       z     vdW  Elec       q    Type
USER                           _______ _______ _______ _____ _____    ______ ____
ROOT
ATOM      1  O   UNL     1     163.303 176.465 175.520 -0.35 -0.29    -0.272 OA
ATOM      2  C   UNL     1     164.190 175.777 175.005 -0.03 +0.05    +0.258 C 
ATOM      3  N   UNL     1     164.079 175.468 173.666 -0.11 +0.05    -0.237 N 
ATOM      4  H   UNL     1     163.233 175.817 173.251 -0.14 -0.11    +0.159 HD
ATOM      5  C   UNL     1     164.965 174.791 172.860 -0.01 -0.06    +0.306 C 
ATOM      6  N   UNL     1     164.460 174.574 171.595 -0.09 +0.06    -0.296 N 
ATOM      7  H   UNL     1     163.738 175.195 171.260 +0.08 -0.05    +0.150 HD
ATOM      8  O   UNL     1     166.064 174.382 173.210 +0.03 +0.05    -0.252 OA
ENDROOT
BRANCH   6   9
ATOM      9  C   UNL     1     165.265 173.877 170.591 -0.28 -0.00    +0.074 C 
ATOM     10  C   UNL     1     164.567 173.859 169.223 -0.17 -0.01    +0.022 C 
ATOM     11  C   UNL     1     163.382 172.895 169.180 -0.48 -0.00    +0.002 C 
ATOM     12  C   UNL     1     163.782 171.492 169.623 -0.33 -0.00    +0.000 C 
ATOM     13  C   UNL     1     164.435 171.500 171.002 -0.28 -0.00    +0.002 C 
ATOM     14  C   UNL     1     165.621 172.460 171.057 -0.27 +0.00    +0.022 C 
ENDBRANCH   6   9
BRANCH   2  15
ATOM     15  C   UNL     1     165.368 175.245 175.812 +0.00 +0.02    +0.326 C 
BRANCH  15  16
ATOM     16  O   UNL     1     164.938 174.285 176.773 -0.06 -0.07    -0.466 OA
BRANCH  16  17
ATOM     17  C   UNL     1     164.016 173.398 176.240 -0.08 +0.03    +0.227 A 
ATOM     18  C   UNL     1     164.432 172.358 175.400 -0.08 -0.01    +0.069 A 
ATOM     19  C   UNL     1     163.417 171.561 174.893 -0.05 -0.01    +0.115 A 
ATOM     20  S   UNL     1     163.992 170.330 173.864 -0.40 +0.02    -0.077 S 
ATOM     21  C   UNL     1     165.615 170.821 174.086 -0.24 -0.02    +0.048 A 
ATOM     22  N   UNL     1     162.101 171.689 175.139 -0.16 -0.01    -0.228 NA
ATOM     23  C   UNL     1     161.834 172.699 175.968 -0.01 +0.10    +0.226 A 
ATOM     24  C   UNL     1     165.712 171.911 174.924 -0.09 -0.01    +0.023 A 
ATOM     25  N   UNL     1     162.706 173.543 176.538 -0.37 -0.12    -0.201 NA
ENDBRANCH  16  17
ENDBRANCH  15  16
ENDBRANCH   2  15
TORSDOF 4
TER
ENDMDL
