MODEL        1
USER    Run = 1
USER
USER    Estimated Free Energy of Binding    =  -5.24 kcal/mol  [=(1)+(2)+(3)-(4)]
USER
USER    (1) Final Intermolecular Energy     =  -7.03 kcal/mol
USER        vdW + Hbond + desolv Energy     =  -7.04 kcal/mol
USER        Electrostatic Energy            =  +0.01 kcal/mol
USER        Moving Ligand-Fixed Receptor    =  -7.03 kcal/mol
USER        Moving Ligand-Moving Receptor   =  +0.00 kcal/mol
USER    (2) Final Total Internal Energy     =  -1.17 kcal/mol
USER    (3) Torsional Free Energy           =  +1.79 kcal/mol
USER    (4) Unbound System's Energy         =  -1.17 kcal/mol
USER
USER
REMARK  Name = Z16116052
REMARK  7 active torsions:
REMARK  status: ('A' for Active; 'I' for Inactive)
REMARK    1  A    between atoms: C_1  and  C_2
REMARK    2  A    between atoms: C_2  and  O_3
REMARK    3  A    between atoms: O_3  and  C_4
REMARK    4  A    between atoms: C_9  and  N_10
REMARK    5  A    between atoms: C_11  and  C_13
REMARK    6  A    between atoms: C_13  and  O_14
REMARK    7  A    between atoms: O_14  and  C_15
REMARK                            x       y       z     vdW  Elec       q    Type
REMARK                         _______ _______ _______ _____ _____    ______ ____
USER                              x       y       z     vdW  Elec       q    Type
USER                           _______ _______ _______ _____ _____    ______ ____
ROOT
ATOM      1  N   UNL     1     156.191 166.708 178.151 -0.25 +0.14    -0.280 N 
ATOM      2  H   UNL     1     156.541 165.768 177.991 +0.11 -0.07    +0.155 HD
ATOM      3  C   UNL     1     157.014 167.794 177.875 -0.31 -0.14    +0.255 C 
ATOM      4  O   UNL     1     156.812 168.957 178.226 -0.37 +0.17    -0.272 OA
ENDROOT
BRANCH   1   6
ATOM      5  C   UNL     1     154.106 165.622 178.848 -0.24 -0.07    +0.142 A 
ATOM      6  C   UNL     1     154.923 166.770 178.792 -0.38 -0.05    +0.076 A 
ATOM      7  C   UNL     1     154.446 167.964 179.347 -0.36 -0.02    +0.027 A 
ATOM      8  C   UNL     1     153.213 168.021 179.995 -0.30 -0.00    +0.002 A 
ATOM      9  C   UNL     1     152.441 166.879 180.112 -0.27 -0.00    +0.004 A 
ATOM     10  C   UNL     1     152.886 165.683 179.548 -0.28 -0.03    +0.047 A 
BRANCH   5  11
ATOM     11  O   UNL     1     154.556 164.475 178.217 -0.07 +0.20    -0.490 OA
BRANCH  11  13
ATOM     12  C   UNL     1     154.378 162.073 177.942 -0.32 -0.02    +0.048 C 
ATOM     13  C   UNL     1     153.641 163.369 178.230 -0.16 -0.08    +0.226 C 
ENDBRANCH  11  13
ENDBRANCH   5  11
ENDBRANCH   1   6
BRANCH   3  14
ATOM     14  C   UNL     1     158.282 167.461 177.091 -0.20 -0.13    +0.325 C 
BRANCH  14  15
ATOM     15  O   UNL     1     159.336 168.304 177.539 -0.17 +0.15    -0.483 OA
BRANCH  15  16
ATOM     16  C   UNL     1     160.320 168.597 176.629 -0.36 -0.02    +0.121 A 
ATOM     17  C   UNL     1     161.453 167.821 176.376 -0.36 -0.00    +0.049 A 
ATOM     18  C   UNL     1     162.337 168.229 175.385 -0.30 +0.00    -0.041 A 
ATOM     19  C   UNL     1     162.117 169.392 174.655 -0.32 +0.00    -0.044 A 
ATOM     20  C   UNL     1     163.175 169.610 173.625 -0.37 -0.01    +0.036 C 
ATOM     21  C   UNL     1     164.128 168.426 173.833 -0.50 -0.00    +0.009 C 
ATOM     22  C   UNL     1     161.011 170.186 174.908 -0.43 -0.00    +0.007 A 
ATOM     23  C   UNL     1     163.578 167.523 174.947 -0.43 -0.01    +0.036 C 
ATOM     24  C   UNL     1     160.114 169.782 175.902 -0.40 -0.00    +0.046 A 
ENDBRANCH  15  16
ENDBRANCH  14  15
ENDBRANCH   3  14
TORSDOF 6
TER
ENDMDL
