MODEL        1
USER    Run = 1
USER
USER    Estimated Free Energy of Binding    =  -4.57 kcal/mol  [=(1)+(2)+(3)-(4)]
USER
USER    (1) Final Intermolecular Energy     =  -6.06 kcal/mol
USER        vdW + Hbond + desolv Energy     =  -5.88 kcal/mol
USER        Electrostatic Energy            =  -0.19 kcal/mol
USER        Moving Ligand-Fixed Receptor    =  -6.06 kcal/mol
USER        Moving Ligand-Moving Receptor   =  +0.00 kcal/mol
USER    (2) Final Total Internal Energy     =  -2.40 kcal/mol
USER    (3) Torsional Free Energy           =  +1.49 kcal/mol
USER    (4) Unbound System's Energy         =  -2.40 kcal/mol
USER
USER
REMARK  Name = Z16183871
REMARK  7 active torsions:
REMARK  status: ('A' for Active; 'I' for Inactive)
REMARK    1  A    between atoms: C_1  and  C_2
REMARK    2  A    between atoms: C_5  and  C_23
REMARK    3  A    between atoms: C_6  and  C_7
REMARK    4  A    between atoms: C_7  and  O_9
REMARK    5  A    between atoms: O_9  and  C_10
REMARK    6  A    between atoms: C_10  and  C_11
REMARK    7  A    between atoms: C_19  and  C_20
REMARK                            x       y       z     vdW  Elec       q    Type
REMARK                         _______ _______ _______ _____ _____    ______ ____
USER                              x       y       z     vdW  Elec       q    Type
USER                           _______ _______ _______ _____ _____    ______ ____
ROOT
ATOM      1  O   UNL     1     162.866 172.012 175.038 -0.06 +0.00    -0.452 OA
ENDROOT
BRANCH   1   2
ATOM      2  C   UNL     1     164.002 171.455 174.531 +0.01 -0.07    +0.345 C 
ATOM      3  O   UNL     1     165.123 171.886 174.779 -0.15 +0.08    -0.245 OA
BRANCH   2   6
ATOM      4  C   UNL     1     165.138 170.894 171.510 -0.27 -0.02    +0.090 C 
ATOM      5  C   UNL     1     164.239 170.134 172.405 -0.20 -0.04    +0.149 A 
ATOM      6  C   UNL     1     163.751 170.328 173.680 -0.19 -0.03    +0.128 A 
ATOM      7  C   UNL     1     162.941 169.177 173.929 -0.26 -0.02    +0.128 A 
ATOM      8  N   UNL     1     162.913 168.393 172.836 -0.35 +0.02    -0.077 NA
ATOM      9  O   UNL     1     163.727 168.986 171.901 -0.20 +0.10    -0.358 OA
BRANCH   7  10
ATOM     10  C   UNL     1     162.255 168.755 175.158 -0.33 -0.00    +0.004 A 
ATOM     11  C   UNL     1     161.185 169.506 175.664 -0.42 -0.00    +0.010 A 
ATOM     12  C   UNL     1     160.454 169.059 176.769 -0.49 -0.00    +0.001 A 
ATOM     13  C   UNL     1     160.796 167.864 177.395 -0.47 -0.00    +0.000 A 
ATOM     14  C   UNL     1     161.873 167.119 176.925 -0.43 -0.00    +0.001 A 
ATOM     15  C   UNL     1     162.590 167.556 175.808 -0.38 -0.00    +0.010 A 
ENDBRANCH   7  10
ENDBRANCH   2   6
ENDBRANCH   1   2
BRANCH   1  16
ATOM     16  C   UNL     1     163.046 172.680 176.286 -0.06 +0.05    +0.328 C 
BRANCH  16  17
ATOM     17  C   UNL     1     163.384 174.154 176.087 +0.03 +0.15    +0.256 C 
ATOM     18  N   UNL     1     163.830 174.456 174.811 -0.08 -0.05    -0.266 N 
ATOM     19  H   UNL     1     164.069 173.686 174.185 +0.08 -0.01    +0.156 HD
ATOM     20  C   UNL     1     164.177 175.749 174.379 -0.07 -0.00    +0.144 A 
ATOM     21  C   UNL     1     164.885 175.923 173.173 -0.07 -0.02    +0.085 A 
ATOM     22 CL   UNL     1     165.340 174.540 172.228 -0.24 +0.01    -0.080 Cl
ATOM     23  C   UNL     1     165.243 177.226 172.753 -0.04 +0.00    -0.009 A 
ATOM     24  C   UNL     1     166.005 177.434 171.469 -0.11 -0.01    +0.047 C 
ATOM     25  C   UNL     1     164.865 178.297 173.572 -0.01 -0.02    +0.063 A 
ATOM     26 CL   UNL     1     165.238 179.943 173.222 -0.06 +0.02    -0.082 Cl
ATOM     27  C   UNL     1     164.157 178.030 174.734 +0.00 -0.00    +0.133 A 
ATOM     28  N   UNL     1     163.806 176.794 175.140 -0.38 -0.10    -0.237 NA
ATOM     29  O   UNL     1     163.297 174.927 177.038 -0.70 -0.22    -0.272 OA
ENDBRANCH  16  17
ENDBRANCH   1  16
TORSDOF 5
TER
ENDMDL
