MODEL        1
USER    Run = 1
USER
USER    Estimated Free Energy of Binding    =  -5.04 kcal/mol  [=(1)+(2)+(3)-(4)]
USER
USER    (1) Final Intermolecular Energy     =  -6.23 kcal/mol
USER        vdW + Hbond + desolv Energy     =  -6.17 kcal/mol
USER        Electrostatic Energy            =  -0.06 kcal/mol
USER        Moving Ligand-Fixed Receptor    =  -6.23 kcal/mol
USER        Moving Ligand-Moving Receptor   =  +0.00 kcal/mol
USER    (2) Final Total Internal Energy     =  -1.06 kcal/mol
USER    (3) Torsional Free Energy           =  +1.19 kcal/mol
USER    (4) Unbound System's Energy         =  -1.06 kcal/mol
USER
USER
REMARK  Name = Z16116028
REMARK  4 active torsions:
REMARK  status: ('A' for Active; 'I' for Inactive)
REMARK    1  A    between atoms: C_5  and  N_6
REMARK    2  A    between atoms: C_7  and  C_9
REMARK    3  A    between atoms: C_9  and  O_10
REMARK    4  A    between atoms: O_10  and  C_11
REMARK                            x       y       z     vdW  Elec       q    Type
REMARK                         _______ _______ _______ _____ _____    ______ ____
USER                              x       y       z     vdW  Elec       q    Type
USER                           _______ _______ _______ _____ _____    ______ ____
ROOT
ATOM      1  N   UNL     1     160.884 168.682 175.997 -0.19 +0.02    -0.283 N 
ATOM      2  H   UNL     1     160.877 167.797 176.493 +0.11 -0.02    +0.155 HD
ATOM      3  C   UNL     1     159.745 169.467 176.114 -0.24 -0.03    +0.255 C 
ATOM      4  O   UNL     1     159.492 170.475 175.457 -0.38 +0.01    -0.272 OA
ENDROOT
BRANCH   1  10
ATOM      5  F   UNL     1     165.244 169.487 172.652 -0.02 +0.07    -0.203 F 
ATOM      6  C   UNL     1     164.195 169.310 173.466 -0.25 -0.04    +0.159 A 
ATOM      7  C   UNL     1     163.935 168.060 174.011 -0.32 -0.04    +0.160 A 
ATOM      8  F   UNL     1     164.737 167.025 173.727 -0.14 +0.06    -0.202 F 
ATOM      9  C   UNL     1     162.845 167.865 174.860 -0.31 -0.01    +0.064 A 
ATOM     10  C   UNL     1     161.989 168.932 175.153 -0.29 -0.00    +0.036 A 
ATOM     11  C   UNL     1     162.270 170.193 174.609 -0.30 -0.00    +0.026 A 
ATOM     12  C   UNL     1     163.368 170.383 173.761 -0.22 -0.01    +0.043 A 
ENDBRANCH   1  10
BRANCH   3  13
ATOM     13  C   UNL     1     158.770 168.978 177.176 -0.20 -0.12    +0.325 C 
BRANCH  13  14
ATOM     14  O   UNL     1     158.685 167.561 177.106 -0.14 +0.17    -0.483 OA
BRANCH  14  15
ATOM     15  C   UNL     1     157.493 167.006 177.489 -0.32 -0.06    +0.121 A 
ATOM     16  C   UNL     1     156.494 167.650 178.224 -0.41 -0.03    +0.049 A 
ATOM     17  C   UNL     1     155.355 166.937 178.571 -0.42 +0.02    -0.041 A 
ATOM     18  C   UNL     1     155.195 165.606 178.195 -0.29 +0.02    -0.044 A 
ATOM     19  C   UNL     1     153.905 165.042 178.690 -0.34 -0.02    +0.036 C 
ATOM     20  C   UNL     1     153.279 166.208 179.471 -0.38 -0.01    +0.009 C 
ATOM     21  C   UNL     1     156.165 164.960 177.450 -0.29 -0.00    +0.007 A 
ATOM     22  C   UNL     1     154.183 167.442 179.345 -0.43 -0.03    +0.036 C 
ATOM     23  C   UNL     1     157.317 165.669 177.097 -0.38 -0.02    +0.046 A 
ENDBRANCH  14  15
ENDBRANCH  13  14
ENDBRANCH   3  13
TORSDOF 4
TER
ENDMDL
