MODEL        1
USER    Run = 1
USER
USER    Estimated Free Energy of Binding    =  -4.46 kcal/mol  [=(1)+(2)+(3)-(4)]
USER
USER    (1) Final Intermolecular Energy     =  -6.55 kcal/mol
USER        vdW + Hbond + desolv Energy     =  -6.14 kcal/mol
USER        Electrostatic Energy            =  -0.41 kcal/mol
USER        Moving Ligand-Fixed Receptor    =  -6.55 kcal/mol
USER        Moving Ligand-Moving Receptor   =  +0.00 kcal/mol
USER    (2) Final Total Internal Energy     =  -2.18 kcal/mol
USER    (3) Torsional Free Energy           =  +2.09 kcal/mol
USER    (4) Unbound System's Energy         =  -2.18 kcal/mol
USER
USER
REMARK  Name = Z16172520
REMARK  10 active torsions:
REMARK  status: ('A' for Active; 'I' for Inactive)
REMARK    1  A    between atoms: C_1  and  O_2
REMARK    2  A    between atoms: O_2  and  C_3
REMARK    3  A    between atoms: C_6  and  N_10
REMARK    4  A    between atoms: C_11  and  S_12
REMARK    5  A    between atoms: S_12  and  C_13
REMARK    6  A    between atoms: C_13  and  C_14
REMARK    7  A    between atoms: N_16  and  C_17
REMARK    8  A    between atoms: C_17  and  C_18
REMARK    9  A    between atoms: C_17  and  C_19
REMARK   10  A    between atoms: C_22  and  C_23
REMARK                            x       y       z     vdW  Elec       q    Type
REMARK                         _______ _______ _______ _____ _____    ______ ____
USER                              x       y       z     vdW  Elec       q    Type
USER                           _______ _______ _______ _____ _____    ______ ____
ROOT
ATOM      1  N   UNL     1     165.345 173.609 171.178 -0.09 +0.01    -0.270 N 
ATOM      2  C   UNL     1     166.117 174.345 170.250 -0.16 +0.03    +0.169 A 
ATOM      3  N   UNL     1     166.378 173.561 169.210 -0.86 -0.07    -0.128 NA
ATOM      4  N   UNL     1     165.817 172.339 169.406 -0.63 -0.05    -0.122 NA
ATOM      5  C   UNL     1     165.180 172.370 170.551 -0.13 +0.01    +0.197 A 
ENDROOT
BRANCH   1  10
ATOM      6  C   UNL     1     163.741 174.499 175.030 -0.07 +0.04    +0.139 A 
ATOM      7  C   UNL     1     164.853 173.657 174.896 -0.09 -0.01    +0.085 A 
ATOM      8 CL   UNL     1     165.463 172.762 176.245 -0.32 +0.02    -0.080 Cl
ATOM      9  C   UNL     1     165.470 173.464 173.649 +0.08 -0.01    +0.050 A 
ATOM     10  C   UNL     1     164.897 173.991 172.487 -0.11 -0.01    +0.052 A 
ATOM     11  C   UNL     1     163.789 174.837 172.629 -0.10 -0.01    +0.030 A 
ATOM     12  C   UNL     1     163.243 175.118 173.886 -0.09 -0.00    +0.049 A 
BRANCH   6  14
ATOM     13  C   UNL     1     163.774 175.527 177.172 -0.05 +0.18    +0.277 C 
ATOM     14  O   UNL     1     163.166 174.612 176.266 -0.50 -0.53    -0.494 OA
ENDBRANCH   6  14
ENDBRANCH   1  10
BRANCH   2  15
ATOM     15  C   UNL     1     166.638 175.730 170.321 -0.23 +0.00    +0.020 A 
ATOM     16  C   UNL     1     166.505 176.557 171.445 -0.11 -0.00    +0.012 A 
ATOM     17  C   UNL     1     166.888 177.904 171.400 -0.10 -0.00    +0.001 A 
ATOM     18  C   UNL     1     167.520 178.416 170.273 -0.15 -0.00    +0.000 A 
ATOM     19  C   UNL     1     167.785 177.576 169.197 -0.20 -0.00    +0.001 A 
ATOM     20  C   UNL     1     167.338 176.249 169.218 -0.17 +0.00    +0.012 A 
ENDBRANCH   2  15
BRANCH   5  21
ATOM     21  S   UNL     1     164.152 171.070 171.083 -0.25 +0.02    -0.076 S 
BRANCH  21  22
ATOM     22  C   UNL     1     164.986 170.483 172.587 -0.24 -0.06    +0.173 C 
BRANCH  22  23
ATOM     23  C   UNL     1     163.999 169.937 173.616 -0.22 -0.06    +0.224 C 
ATOM     24  N   UNL     1     163.104 170.870 174.095 -0.05 +0.05    -0.312 N 
ATOM     25  H   UNL     1     163.199 171.837 173.779 +0.10 -0.02    +0.149 HD
ATOM     26  O   UNL     1     164.019 168.770 173.986 -0.28 +0.07    -0.275 OA
BRANCH  24  27
ATOM     27  C   UNL     1     162.146 170.592 175.146 -0.31 -0.00    +0.067 C 
ATOM     28  C   UNL     1     160.839 170.097 174.532 -0.41 +0.00    +0.027 C 
ATOM     29  C   UNL     1     161.913 171.848 175.985 -0.39 +0.00    +0.027 C 
ENDBRANCH  24  27
ENDBRANCH  22  23
ENDBRANCH  21  22
ENDBRANCH   5  21
TORSDOF 7
TER
ENDMDL
