MODEL        1
USER    Run = 1
USER
USER    Estimated Free Energy of Binding    =  -4.20 kcal/mol  [=(1)+(2)+(3)-(4)]
USER
USER    (1) Final Intermolecular Energy     =  -5.39 kcal/mol
USER        vdW + Hbond + desolv Energy     =  -5.40 kcal/mol
USER        Electrostatic Energy            =  +0.01 kcal/mol
USER        Moving Ligand-Fixed Receptor    =  -5.39 kcal/mol
USER        Moving Ligand-Moving Receptor   =  +0.00 kcal/mol
USER    (2) Final Total Internal Energy     =  -0.72 kcal/mol
USER    (3) Torsional Free Energy           =  +1.19 kcal/mol
USER    (4) Unbound System's Energy         =  -0.72 kcal/mol
USER
USER
REMARK  Name = Z16164570
REMARK  4 active torsions:
REMARK  status: ('A' for Active; 'I' for Inactive)
REMARK    1  A    between atoms: C_2  and  C_3
REMARK    2  A    between atoms: C_3  and  O_4
REMARK    3  A    between atoms: O_4  and  C_5
REMARK    4  A    between atoms: N_17  and  C_18
REMARK                            x       y       z     vdW  Elec       q    Type
REMARK                         _______ _______ _______ _____ _____    ______ ____
USER                              x       y       z     vdW  Elec       q    Type
USER                           _______ _______ _______ _____ _____    ______ ____
ROOT
ATOM      1  O   UNL     1     163.659 166.329 173.291 -0.35 +0.08    -0.272 OA
ATOM      2  C   UNL     1     163.762 167.545 173.479 -0.27 -0.06    +0.258 C 
ATOM      3  N   UNL     1     163.694 168.383 172.389 -0.18 +0.06    -0.237 N 
ATOM      4  H   UNL     1     163.637 167.884 171.517 +0.13 -0.05    +0.159 HD
ATOM      5  C   UNL     1     163.843 169.749 172.339 -0.15 -0.08    +0.306 C 
ATOM      6  N   UNL     1     163.985 170.210 171.044 -0.04 +0.09    -0.296 N 
ATOM      7  H   UNL     1     163.469 169.698 170.344 +0.00 -0.06    +0.150 HD
ATOM      8  O   UNL     1     163.867 170.490 173.312 -0.21 +0.06    -0.252 OA
ENDROOT
BRANCH   6   9
ATOM      9  C   UNL     1     164.164 171.632 170.800 -0.14 -0.02    +0.074 C 
ATOM     10  C   UNL     1     164.134 171.975 169.305 -0.43 -0.01    +0.022 C 
ATOM     11  C   UNL     1     165.216 173.031 169.077 -0.47 -0.00    +0.002 C 
ATOM     12  C   UNL     1     165.713 173.425 170.458 -0.33 +0.00    +0.002 C 
ATOM     13  C   UNL     1     165.517 172.166 171.282 -0.28 +0.00    +0.022 C 
ENDBRANCH   6   9
BRANCH   2  14
ATOM     14  C   UNL     1     164.010 168.125 174.867 -0.17 -0.09    +0.326 C 
BRANCH  14  15
ATOM     15  O   UNL     1     162.959 167.769 175.759 -0.15 +0.07    -0.466 OA
BRANCH  15  16
ATOM     16  C   UNL     1     161.928 168.693 175.741 -0.12 -0.02    +0.227 A 
ATOM     17  C   UNL     1     160.699 168.397 176.345 -0.33 -0.01    +0.069 A 
ATOM     18  C   UNL     1     159.727 169.379 176.223 -0.32 -0.02    +0.115 A 
ATOM     19  S   UNL     1     158.253 168.942 176.961 -0.50 +0.04    -0.077 S 
ATOM     20  C   UNL     1     158.887 167.439 177.476 -0.12 -0.02    +0.048 A 
ATOM     21  N   UNL     1     159.858 170.563 175.602 -0.26 +0.00    -0.228 NA
ATOM     22  C   UNL     1     161.078 170.737 175.090 -0.21 +0.00    +0.226 A 
ATOM     23  C   UNL     1     160.198 167.273 177.084 -0.27 -0.00    +0.023 A 
ATOM     24  N   UNL     1     162.112 169.887 175.134 -0.23 +0.02    -0.201 NA
ENDBRANCH  15  16
ENDBRANCH  14  15
ENDBRANCH   2  14
TORSDOF 4
TER
ENDMDL
