MODEL        1
USER    Run = 1
USER
USER    Estimated Free Energy of Binding    =  -4.50 kcal/mol  [=(1)+(2)+(3)-(4)]
USER
USER    (1) Final Intermolecular Energy     =  -5.99 kcal/mol
USER        vdW + Hbond + desolv Energy     =  -5.74 kcal/mol
USER        Electrostatic Energy            =  -0.24 kcal/mol
USER        Moving Ligand-Fixed Receptor    =  -5.99 kcal/mol
USER        Moving Ligand-Moving Receptor   =  +0.00 kcal/mol
USER    (2) Final Total Internal Energy     =  -1.73 kcal/mol
USER    (3) Torsional Free Energy           =  +1.49 kcal/mol
USER    (4) Unbound System's Energy         =  -1.73 kcal/mol
USER
USER
REMARK  Name = Z16117162
REMARK  7 active torsions:
REMARK  status: ('A' for Active; 'I' for Inactive)
REMARK    1  A    between atoms: C_1  and  O_2
REMARK    2  A    between atoms: O_2  and  C_3
REMARK    3  A    between atoms: C_8  and  C_9
REMARK    4  A    between atoms: C_9  and  C_10
REMARK    5  A    between atoms: C_10  and  C_11
REMARK    6  A    between atoms: N_15  and  C_16
REMARK    7  A    between atoms: C_16  and  C_17
REMARK                            x       y       z     vdW  Elec       q    Type
REMARK                         _______ _______ _______ _____ _____    ______ ____
USER                              x       y       z     vdW  Elec       q    Type
USER                           _______ _______ _______ _____ _____    ______ ____
ROOT
ATOM      1  C   UNL     1     165.830 176.819 173.472 -0.04 -0.02    +0.114 C 
ATOM      2  C   UNL     1     166.099 176.041 174.798 +0.00 -0.02    +0.247 C 
ATOM      3  O   UNL     1     166.969 176.316 175.613 -0.19 -0.00    -0.273 OA
ATOM      4  N   UNL     1     165.193 175.017 174.895 -0.05 +0.01    -0.215 N 
ATOM      5  C   UNL     1     164.106 175.371 174.147 -0.04 -0.02    +0.310 C 
ATOM      6  O   UNL     1     162.967 174.946 174.249 -0.25 -0.05    -0.252 OA
ATOM      7  N   UNL     1     164.453 176.403 173.307 -0.04 +0.11    -0.285 N 
ATOM      8  H   UNL     1     163.761 176.872 172.736 -0.47 -0.16    +0.151 HD
ATOM      9  C   UNL     1     165.959 178.324 173.662 -0.02 -0.01    +0.042 C 
ENDROOT
BRANCH   1  10
ATOM     10  C   UNL     1     166.753 176.239 172.375 -0.07 -0.01    +0.074 C 
BRANCH  10  12
ATOM     11  C   UNL     1     166.234 175.342 170.019 -0.16 +0.00    +0.123 A 
ATOM     12  C   UNL     1     166.220 175.169 171.425 -0.16 +0.00    -0.003 A 
ATOM     13  C   UNL     1     165.865 173.908 171.944 -0.14 -0.00    +0.007 A 
ATOM     14  C   UNL     1     165.582 172.835 171.096 -0.23 +0.00    +0.001 A 
ATOM     15  C   UNL     1     165.641 173.002 169.719 -0.33 +0.00    +0.004 A 
ATOM     16  C   UNL     1     165.944 174.255 169.185 -0.28 +0.01    +0.046 A 
BRANCH  11  18
ATOM     17  C   UNL     1     167.886 176.866 169.251 -0.12 +0.01    +0.277 C 
ATOM     18  O   UNL     1     166.523 176.601 169.567 -0.08 +0.02    -0.495 OA
ENDBRANCH  11  18
ENDBRANCH  10  12
ENDBRANCH   1  10
BRANCH   4  19
ATOM     19  C   UNL     1     165.043 174.102 176.026 -0.10 +0.00    +0.214 C 
BRANCH  19  20
ATOM     20  C   UNL     1     163.637 173.619 176.397 -0.14 +0.07    +0.238 C 
ATOM     21  N   UNL     1     163.097 172.522 175.725 -0.13 -0.03    -0.270 N 
ATOM     22  C   UNL     1     163.657 171.561 174.852 -0.11 -0.01    +0.040 A 
ATOM     23  C   UNL     1     162.693 170.600 174.518 -0.23 +0.00    -0.025 A 
ATOM     24  C   UNL     1     162.980 169.502 173.710 -0.34 -0.00    +0.005 A 
ATOM     25  C   UNL     1     164.278 169.357 173.230 -0.37 -0.00    +0.000 A 
ATOM     26  C   UNL     1     165.251 170.312 173.549 -0.28 -0.00    +0.002 A 
ATOM     27  C   UNL     1     161.364 170.907 175.127 -0.39 +0.00    +0.056 C 
ATOM     28  C   UNL     1     164.938 171.422 174.343 -0.20 -0.01    +0.024 A 
ATOM     29  C   UNL     1     161.699 172.121 175.999 -0.29 +0.03    +0.118 C 
ATOM     30  O   UNL     1     162.982 174.200 177.272 -0.54 -0.16    -0.274 OA
ENDBRANCH  19  20
ENDBRANCH   4  19
TORSDOF 5
TER
ENDMDL
