MODEL        1
USER    Run = 1
USER
USER    Estimated Free Energy of Binding    =  -3.27 kcal/mol  [=(1)+(2)+(3)-(4)]
USER
USER    (1) Final Intermolecular Energy     =  -4.77 kcal/mol
USER        vdW + Hbond + desolv Energy     =  -4.59 kcal/mol
USER        Electrostatic Energy            =  -0.17 kcal/mol
USER        Moving Ligand-Fixed Receptor    =  -4.77 kcal/mol
USER        Moving Ligand-Moving Receptor   =  +0.00 kcal/mol
USER    (2) Final Total Internal Energy     =  -1.85 kcal/mol
USER    (3) Torsional Free Energy           =  +1.49 kcal/mol
USER    (4) Unbound System's Energy         =  -1.85 kcal/mol
USER
USER
REMARK  Name = Z16164578
REMARK  5 active torsions:
REMARK  status: ('A' for Active; 'I' for Inactive)
REMARK    1  A    between atoms: C_2  and  C_3
REMARK    2  A    between atoms: C_3  and  O_4
REMARK    3  A    between atoms: O_4  and  C_5
REMARK    4  A    between atoms: N_17  and  C_18
REMARK    5  A    between atoms: C_18  and  C_19
REMARK                            x       y       z     vdW  Elec       q    Type
REMARK                         _______ _______ _______ _____ _____    ______ ____
USER                              x       y       z     vdW  Elec       q    Type
USER                           _______ _______ _______ _____ _____    ______ ____
ROOT
ATOM      1  O   UNL     1     150.849 162.295 177.782 -0.14 +0.04    -0.272 OA
ATOM      2  C   UNL     1     151.020 163.509 177.923 -0.17 -0.05    +0.258 C 
ATOM      3  N   UNL     1     152.281 163.956 178.252 -0.20 +0.08    -0.237 N 
ATOM      4  H   UNL     1     152.941 163.207 178.379 +0.08 -0.05    +0.159 HD
ATOM      5  C   UNL     1     152.683 165.225 178.603 -0.17 -0.15    +0.306 C 
ATOM      6  N   UNL     1     154.008 165.282 178.950 -0.17 +0.14    -0.292 N 
ATOM      7  H   UNL     1     154.636 164.545 178.666 +0.09 -0.06    +0.151 HD
ATOM      8  O   UNL     1     151.963 166.213 178.606 -0.13 +0.21    -0.252 OA
ENDROOT
BRANCH   6   9
ATOM      9  C   UNL     1     154.619 166.565 179.220 -0.34 -0.11    +0.180 C 
BRANCH   9  10
ATOM     10  C   UNL     1     155.809 166.729 178.353 -0.35 -0.06    +0.122 A 
ATOM     11  O   UNL     1     156.324 165.601 177.780 -0.12 +0.21    -0.466 OA
ATOM     12  C   UNL     1     157.385 165.993 177.027 -0.26 -0.09    +0.195 A 
ATOM     13  C   UNL     1     157.560 167.355 177.111 -0.39 -0.02    +0.041 A 
ATOM     14  C   UNL     1     156.542 167.832 177.970 -0.45 -0.03    +0.046 A 
ENDBRANCH   9  10
ENDBRANCH   6   9
BRANCH   2  15
ATOM     15  C   UNL     1     149.880 164.506 177.747 -0.11 -0.06    +0.326 C 
BRANCH  15  16
ATOM     16  O   UNL     1     149.053 164.484 178.907 -0.36 -0.14    -0.466 OA
BRANCH  16  17
ATOM     17  C   UNL     1     149.511 165.332 179.900 -0.12 -0.00    +0.227 A 
ATOM     18  C   UNL     1     149.400 166.720 179.745 -0.14 -0.03    +0.069 A 
ATOM     19  C   UNL     1     149.840 167.476 180.819 -0.09 -0.06    +0.115 A 
ATOM     20  S   UNL     1     149.646 169.152 180.572 -0.16 +0.05    -0.077 S 
ATOM     21  C   UNL     1     148.986 168.905 179.014 -0.10 -0.03    +0.048 A 
ATOM     22  N   UNL     1     150.369 167.007 181.963 -0.15 +0.14    -0.228 NA
ATOM     23  C   UNL     1     150.445 165.673 181.978 -0.19 -0.08    +0.226 A 
ATOM     24  C   UNL     1     148.912 167.566 178.692 -0.14 -0.01    +0.023 A 
ATOM     25  N   UNL     1     150.061 164.818 181.020 -0.32 +0.01    -0.201 NA
ENDBRANCH  16  17
ENDBRANCH  15  16
ENDBRANCH   2  15
TORSDOF 5
TER
ENDMDL
