MODEL        1
USER    Run = 1
USER
USER    Estimated Free Energy of Binding    =  -5.19 kcal/mol  [=(1)+(2)+(3)-(4)]
USER
USER    (1) Final Intermolecular Energy     =  -6.98 kcal/mol
USER        vdW + Hbond + desolv Energy     =  -6.86 kcal/mol
USER        Electrostatic Energy            =  -0.13 kcal/mol
USER        Moving Ligand-Fixed Receptor    =  -6.98 kcal/mol
USER        Moving Ligand-Moving Receptor   =  +0.00 kcal/mol
USER    (2) Final Total Internal Energy     =  -2.51 kcal/mol
USER    (3) Torsional Free Energy           =  +1.79 kcal/mol
USER    (4) Unbound System's Energy         =  -2.51 kcal/mol
USER
USER
REMARK  Name = Z16184638
REMARK  8 active torsions:
REMARK  status: ('A' for Active; 'I' for Inactive)
REMARK    1  A    between atoms: C_1  and  C_2
REMARK    2  A    between atoms: C_5  and  C_22
REMARK    3  A    between atoms: C_6  and  C_7
REMARK    4  A    between atoms: C_7  and  O_9
REMARK    5  A    between atoms: O_9  and  C_10
REMARK    6  A    between atoms: C_10  and  C_11
REMARK    7  A    between atoms: N_13  and  C_14
REMARK    8  A    between atoms: C_20  and  C_21
REMARK                            x       y       z     vdW  Elec       q    Type
REMARK                         _______ _______ _______ _____ _____    ______ ____
USER                              x       y       z     vdW  Elec       q    Type
USER                           _______ _______ _______ _____ _____    ______ ____
ROOT
ATOM      1  C   UNL     1     164.551 171.665 173.973 -0.03 -0.09    +0.345 C 
ATOM      2  O   UNL     1     165.314 171.055 174.709 -0.19 +0.10    -0.245 OA
ENDROOT
BRANCH   1   5
ATOM      3  C   UNL     1     163.357 173.080 176.686 -0.26 +0.02    +0.090 C 
ATOM      4  C   UNL     1     163.666 173.593 175.337 -0.10 +0.03    +0.149 A 
ATOM      5  C   UNL     1     164.177 173.042 174.179 -0.06 -0.01    +0.128 A 
ATOM      6  C   UNL     1     164.226 174.129 173.256 -0.04 -0.02    +0.128 A 
ATOM      7  N   UNL     1     163.716 175.235 173.826 -0.20 +0.01    -0.077 NA
ATOM      8  O   UNL     1     163.382 174.900 175.116 -0.44 -0.21    -0.358 OA
BRANCH   6   9
ATOM      9  C   UNL     1     164.782 174.189 171.898 -0.18 -0.00    +0.004 A 
ATOM     10  C   UNL     1     165.759 175.143 171.578 -0.15 -0.00    +0.010 A 
ATOM     11  C   UNL     1     166.371 175.148 170.321 -0.25 +0.00    +0.001 A 
ATOM     12  C   UNL     1     166.004 174.209 169.361 -0.34 +0.00    +0.000 A 
ATOM     13  C   UNL     1     165.020 173.269 169.653 -0.37 -0.00    +0.001 A 
ATOM     14  C   UNL     1     164.420 173.253 170.916 -0.20 -0.00    +0.010 A 
ENDBRANCH   6   9
ENDBRANCH   1   5
BRANCH   1  15
ATOM     15  O   UNL     1     163.954 171.106 172.884 +0.00 +0.10    -0.452 OA
BRANCH  15  16
ATOM     16  C   UNL     1     164.372 169.767 172.619 -0.13 -0.09    +0.328 C 
BRANCH  16  17
ATOM     17  C   UNL     1     163.624 168.767 173.499 -0.26 -0.06    +0.255 C 
ATOM     18  N   UNL     1     163.001 169.336 174.603 -0.14 +0.05    -0.282 N 
ATOM     19  H   UNL     1     163.236 170.309 174.797 +0.11 -0.03    +0.155 HD
ATOM     20  O   UNL     1     163.663 167.571 173.218 -0.31 +0.06    -0.272 OA
BRANCH  18  21
ATOM     21  C   UNL     1     162.223 168.653 175.576 -0.25 -0.00    +0.038 A 
ATOM     22  C   UNL     1     160.944 169.145 175.945 -0.40 +0.00    -0.011 A 
ATOM     23  C   UNL     1     160.393 170.425 175.368 -0.50 +0.00    +0.047 C 
ATOM     24  C   UNL     1     160.185 168.399 176.875 -0.44 -0.01    +0.046 A 
ATOM     25 CL   UNL     1     158.575 168.849 177.335 -0.62 +0.03    -0.083 Cl
ATOM     26  C   UNL     1     160.696 167.244 177.470 -0.37 -0.00    +0.020 A 
ATOM     27  C   UNL     1     161.955 166.785 177.121 -0.40 -0.00    +0.003 A 
ATOM     28  C   UNL     1     162.699 167.474 176.167 -0.33 -0.00    +0.024 A 
ENDBRANCH  18  21
ENDBRANCH  16  17
ENDBRANCH  15  16
ENDBRANCH   1  15
TORSDOF 6
TER
ENDMDL
