MODEL        1
USER    Run = 1
USER
USER    Estimated Free Energy of Binding    =  -4.88 kcal/mol  [=(1)+(2)+(3)-(4)]
USER
USER    (1) Final Intermolecular Energy     =  -6.67 kcal/mol
USER        vdW + Hbond + desolv Energy     =  -6.63 kcal/mol
USER        Electrostatic Energy            =  -0.05 kcal/mol
USER        Moving Ligand-Fixed Receptor    =  -6.67 kcal/mol
USER        Moving Ligand-Moving Receptor   =  +0.00 kcal/mol
USER    (2) Final Total Internal Energy     =  -2.02 kcal/mol
USER    (3) Torsional Free Energy           =  +1.79 kcal/mol
USER    (4) Unbound System's Energy         =  -2.02 kcal/mol
USER
USER
REMARK  Name = Z16117151
REMARK  8 active torsions:
REMARK  status: ('A' for Active; 'I' for Inactive)
REMARK    1  A    between atoms: C_1  and  O_2
REMARK    2  A    between atoms: O_2  and  C_3
REMARK    3  A    between atoms: C_8  and  C_9
REMARK    4  A    between atoms: C_9  and  C_10
REMARK    5  A    between atoms: C_10  and  C_11
REMARK    6  A    between atoms: N_15  and  C_16
REMARK    7  A    between atoms: C_16  and  C_17
REMARK    8  A    between atoms: N_19  and  C_20
REMARK                            x       y       z     vdW  Elec       q    Type
REMARK                         _______ _______ _______ _____ _____    ______ ____
USER                              x       y       z     vdW  Elec       q    Type
USER                           _______ _______ _______ _____ _____    ______ ____
ROOT
ATOM      1  C   UNL     1     163.200 168.577 173.849 -0.37 -0.02    +0.114 C 
ATOM      2  C   UNL     1     162.310 169.624 174.577 -0.23 -0.03    +0.247 C 
ATOM      3  O   UNL     1     162.043 170.740 174.147 -0.07 +0.02    -0.273 OA
ATOM      4  N   UNL     1     161.879 169.093 175.763 -0.22 +0.02    -0.215 N 
ATOM      5  C   UNL     1     162.260 167.796 175.858 -0.20 -0.03    +0.310 C 
ATOM      6  O   UNL     1     162.021 167.039 176.784 -0.37 +0.03    -0.252 OA
ATOM      7  N   UNL     1     162.972 167.462 174.740 -0.21 +0.05    -0.285 N 
ATOM      8  H   UNL     1     163.495 166.594 174.693 +0.10 -0.04    +0.151 HD
ATOM      9  C   UNL     1     162.651 168.301 172.453 -0.27 -0.01    +0.042 C 
ENDROOT
BRANCH   1  10
ATOM     10  C   UNL     1     164.654 169.088 173.857 -0.39 -0.02    +0.074 C 
BRANCH  10  12
ATOM     11  C   UNL     1     165.339 171.588 173.872 -0.14 -0.04    +0.123 A 
ATOM     12  C   UNL     1     165.030 170.401 173.178 -0.30 +0.00    -0.003 A 
ATOM     13  C   UNL     1     164.905 170.476 171.775 -0.26 -0.00    +0.007 A 
ATOM     14  C   UNL     1     164.993 171.694 171.095 -0.28 -0.00    +0.001 A 
ATOM     15  C   UNL     1     165.186 172.870 171.805 -0.18 -0.00    +0.004 A 
ATOM     16  C   UNL     1     165.362 172.813 173.185 -0.08 -0.01    +0.046 A 
BRANCH  11  18
ATOM     17  C   UNL     1     166.798 170.857 175.579 -0.09 -0.20    +0.277 C 
ATOM     18  O   UNL     1     165.575 171.511 175.222 +0.04 +0.21    -0.495 OA
ENDBRANCH  11  18
ENDBRANCH  10  12
ENDBRANCH   1  10
BRANCH   4  19
ATOM     19  C   UNL     1     160.946 169.726 176.673 -0.30 -0.02    +0.214 C 
BRANCH  19  20
ATOM     20  C   UNL     1     159.517 169.170 176.717 -0.28 -0.05    +0.235 C 
ATOM     21  N   UNL     1     159.331 167.965 177.383 -0.23 +0.08    -0.284 N 
ATOM     22  H   UNL     1     160.165 167.462 177.672 +0.11 -0.04    +0.155 HD
ATOM     23  O   UNL     1     158.659 169.718 176.019 -0.29 +0.09    -0.274 OA
BRANCH  21  24
ATOM     24  C   UNL     1     158.096 167.267 177.490 -0.27 -0.02    +0.037 A 
ATOM     25  C   UNL     1     156.990 167.934 178.039 -0.33 -0.04    +0.073 A 
ATOM     26  C   UNL     1     155.808 167.226 178.208 -0.33 -0.09    +0.168 A 
ATOM     27  C   UNL     1     155.683 165.913 177.829 -0.24 -0.08    +0.166 A 
ATOM     28  O   UNL     1     154.457 165.392 178.095 -0.10 +0.21    -0.453 OA
ATOM     29  C   UNL     1     153.826 166.517 178.738 -0.00 -0.33    +0.466 C 
ATOM     30  C   UNL     1     156.727 165.236 177.244 -0.34 -0.02    +0.051 A 
ATOM     31  O   UNL     1     154.655 167.702 178.759 -0.20 +0.36    -0.453 OA
ATOM     32  C   UNL     1     157.936 165.924 177.076 -0.29 -0.01    +0.027 A 
ENDBRANCH  21  24
ENDBRANCH  19  20
ENDBRANCH   4  19
TORSDOF 6
TER
ENDMDL
