MODEL        1
USER    Run = 1
USER
USER    Estimated Free Energy of Binding    =  -3.26 kcal/mol  [=(1)+(2)+(3)-(4)]
USER
USER    (1) Final Intermolecular Energy     =  -5.64 kcal/mol
USER        vdW + Hbond + desolv Energy     =  -5.72 kcal/mol
USER        Electrostatic Energy            =  +0.08 kcal/mol
USER        Moving Ligand-Fixed Receptor    =  -5.64 kcal/mol
USER        Moving Ligand-Moving Receptor   =  +0.00 kcal/mol
USER    (2) Final Total Internal Energy     =  -4.17 kcal/mol
USER    (3) Torsional Free Energy           =  +2.39 kcal/mol
USER    (4) Unbound System's Energy         =  -4.17 kcal/mol
USER
USER
REMARK  Name = Z16150974
REMARK  8 active torsions:
REMARK  status: ('A' for Active; 'I' for Inactive)
REMARK    1  A    between atoms: C_2  and  C_3
REMARK    2  A    between atoms: C_3  and  O_4
REMARK    3  A    between atoms: O_4  and  C_5
REMARK    4  A    between atoms: C_5  and  C_7
REMARK    5  A    between atoms: C_12  and  N_13
REMARK    6  A    between atoms: N_13  and  C_14
REMARK    7  A    between atoms: C_14  and  C_15
REMARK    8  A    between atoms: N_20  and  C_21
REMARK                            x       y       z     vdW  Elec       q    Type
REMARK                         _______ _______ _______ _____ _____    ______ ____
USER                              x       y       z     vdW  Elec       q    Type
USER                           _______ _______ _______ _____ _____    ______ ____
ROOT
ATOM      1  C   UNL     1     163.076 168.585 174.211 -0.18 -0.06    +0.341 C 
ATOM      2  O   UNL     1     164.277 168.817 174.176 -0.32 +0.07    -0.245 OA
ENDROOT
BRANCH   1   3
ATOM      3  C   UNL     1     162.298 168.335 175.452 -0.26 -0.01    +0.080 A 
ATOM      4  C   UNL     1     161.247 169.203 175.836 -0.36 -0.00    +0.042 A 
ATOM      5  C   UNL     1     160.474 168.810 176.943 -0.47 -0.00    +0.024 A 
ATOM      6  C   UNL     1     160.787 167.677 177.701 -0.36 -0.00    +0.002 A 
ATOM      7  C   UNL     1     161.877 166.889 177.361 -0.43 -0.00    +0.001 A 
ATOM      8  C   UNL     1     162.629 167.211 176.236 -0.36 -0.00    +0.017 A 
BRANCH   4   9
ATOM      9  N   UNL     1     160.881 170.323 175.055 -0.23 -0.00    -0.336 N 
ATOM     10  H   UNL     1     161.262 170.238 174.105 +0.08 -0.00    +0.146 HD
BRANCH   9  11
ATOM     11  C   UNL     1     161.182 171.655 175.597 -0.26 +0.03    +0.176 C 
BRANCH  11  12
ATOM     12  C   UNL     1     162.605 172.071 175.446 -0.16 +0.01    +0.122 A 
ATOM     13  O   UNL     1     163.338 171.433 174.485 -0.03 +0.06    -0.466 OA
ATOM     14  C   UNL     1     164.597 171.935 174.549 -0.06 -0.05    +0.195 A 
ATOM     15  C   UNL     1     164.688 172.888 175.537 -0.15 -0.01    +0.041 A 
ATOM     16  C   UNL     1     163.401 172.975 176.120 -0.21 +0.01    +0.046 A 
ENDBRANCH  11  12
ENDBRANCH   9  11
ENDBRANCH   4   9
ENDBRANCH   1   3
BRANCH   1  17
ATOM     17  O   UNL     1     162.245 168.609 173.142 -0.06 +0.05    -0.452 OA
BRANCH  17  18
ATOM     18  C   UNL     1     162.811 168.233 171.891 -0.14 -0.11    +0.328 C 
BRANCH  18  20
ATOM     19  O   UNL     1     162.957 169.342 169.768 -0.27 +0.14    -0.272 OA
ATOM     20  C   UNL     1     163.226 169.384 170.968 -0.01 -0.10    +0.255 C 
ATOM     21  N   UNL     1     163.916 170.400 171.607 -0.08 +0.08    -0.283 N 
ATOM     22  H   UNL     1     163.945 170.371 172.625 +0.11 -0.04    +0.155 HD
BRANCH  21  23
ATOM     23  C   UNL     1     164.492 171.533 171.001 -0.22 -0.01    +0.037 A 
ATOM     24  C   UNL     1     165.457 172.246 171.725 -0.18 -0.00    +0.073 A 
ATOM     25  C   UNL     1     166.007 173.370 171.140 -0.08 +0.02    +0.168 A 
ATOM     26  C   UNL     1     165.656 173.776 169.874 -0.20 +0.02    +0.166 A 
ATOM     27  O   UNL     1     166.310 174.902 169.486 -0.19 -0.06    -0.453 OA
ATOM     28  C   UNL     1     167.097 175.176 170.662 +0.04 +0.05    +0.466 C 
ATOM     29  C   UNL     1     164.737 173.082 169.125 -0.33 -0.01    +0.051 A 
ATOM     30  O   UNL     1     166.919 174.202 171.714 -0.02 -0.00    -0.453 OA
ATOM     31  C   UNL     1     164.146 171.954 169.701 -0.32 -0.01    +0.027 A 
ENDBRANCH  21  23
ENDBRANCH  18  20
ENDBRANCH  17  18
ENDBRANCH   1  17
TORSDOF 8
TER
ENDMDL
