MODEL        1
USER    Run = 1
USER
USER    Estimated Free Energy of Binding    =  -5.68 kcal/mol  [=(1)+(2)+(3)-(4)]
USER
USER    (1) Final Intermolecular Energy     =  -7.47 kcal/mol
USER        vdW + Hbond + desolv Energy     =  -7.34 kcal/mol
USER        Electrostatic Energy            =  -0.13 kcal/mol
USER        Moving Ligand-Fixed Receptor    =  -7.47 kcal/mol
USER        Moving Ligand-Moving Receptor   =  +0.00 kcal/mol
USER    (2) Final Total Internal Energy     =  -1.64 kcal/mol
USER    (3) Torsional Free Energy           =  +1.79 kcal/mol
USER    (4) Unbound System's Energy         =  -1.64 kcal/mol
USER
USER
REMARK  Name = Z16172710
REMARK  7 active torsions:
REMARK  status: ('A' for Active; 'I' for Inactive)
REMARK    1  A    between atoms: C_1  and  O_2
REMARK    2  A    between atoms: O_2  and  C_3
REMARK    3  A    between atoms: C_6  and  N_10
REMARK    4  A    between atoms: C_11  and  S_12
REMARK    5  A    between atoms: S_12  and  C_13
REMARK    6  A    between atoms: C_13  and  C_14
REMARK    7  A    between atoms: C_24  and  C_25
REMARK                            x       y       z     vdW  Elec       q    Type
REMARK                         _______ _______ _______ _____ _____    ______ ____
USER                              x       y       z     vdW  Elec       q    Type
USER                           _______ _______ _______ _____ _____    ______ ____
ROOT
ATOM      1  N   UNL     1     163.869 170.877 173.764 -0.10 +0.06    -0.270 N 
ATOM      2  C   UNL     1     163.012 169.756 173.816 -0.20 -0.03    +0.169 A 
ATOM      3  N   UNL     1     163.234 169.000 172.753 -0.32 +0.03    -0.128 NA
ATOM      4  N   UNL     1     164.139 169.609 171.947 -0.28 +0.03    -0.122 NA
ATOM      5  C   UNL     1     164.498 170.734 172.517 -0.15 -0.05    +0.197 A 
ENDROOT
BRANCH   1  10
ATOM      6  C   UNL     1     164.534 173.711 176.937 -0.17 +0.01    +0.139 A 
ATOM      7  C   UNL     1     165.492 172.741 176.636 -0.14 -0.02    +0.085 A 
ATOM      8 CL   UNL     1     166.908 172.433 177.581 -0.29 +0.04    -0.080 Cl
ATOM      9  C   UNL     1     165.300 171.869 175.542 +0.23 -0.02    +0.050 A 
ATOM     10  C   UNL     1     164.116 171.864 174.790 -0.13 -0.01    +0.052 A 
ATOM     11  C   UNL     1     163.152 172.822 175.120 -0.16 +0.00    +0.030 A 
ATOM     12  C   UNL     1     163.378 173.748 176.149 -0.17 +0.02    +0.049 A 
BRANCH   6  14
ATOM     13  C   UNL     1     163.304 175.345 178.197 -0.09 +0.13    +0.277 C 
ATOM     14  O   UNL     1     164.500 174.624 177.952 -0.36 -0.26    -0.494 OA
ENDBRANCH   6  14
ENDBRANCH   1  10
BRANCH   2  15
ATOM     15  C   UNL     1     162.004 169.379 174.828 -0.35 -0.00    +0.020 A 
ATOM     16  C   UNL     1     160.803 170.075 175.022 -0.43 +0.00    +0.012 A 
ATOM     17  C   UNL     1     159.926 169.712 176.050 -0.42 -0.00    +0.001 A 
ATOM     18  C   UNL     1     160.198 168.608 176.857 -0.50 -0.00    +0.000 A 
ATOM     19  C   UNL     1     161.343 167.856 176.623 -0.43 -0.00    +0.001 A 
ATOM     20  C   UNL     1     162.236 168.238 175.620 -0.34 -0.00    +0.012 A 
ENDBRANCH   2  15
BRANCH   5  21
ATOM     21  S   UNL     1     165.742 171.755 171.852 -0.36 +0.01    -0.076 S 
BRANCH  21  22
ATOM     22  C   UNL     1     164.912 172.626 170.500 -0.22 -0.01    +0.173 C 
BRANCH  22  23
ATOM     23  C   UNL     1     165.842 173.505 169.657 -0.21 +0.07    +0.232 C 
ATOM     24  N   UNL     1     166.047 174.800 170.146 -0.18 -0.02    -0.241 N 
ATOM     25  C   UNL     1     165.574 175.378 171.335 -0.07 -0.03    +0.222 C 
ATOM     26  O   UNL     1     164.775 174.908 172.126 -0.13 +0.06    -0.275 OA
ATOM     27  C   UNL     1     166.176 176.760 171.463 -0.10 -0.02    +0.098 C 
ATOM     28  C   UNL     1     167.310 176.739 170.453 -0.22 -0.00    +0.029 C 
ATOM     29  C   UNL     1     166.831 175.758 169.405 -0.18 +0.01    +0.117 C 
ATOM     30  O   UNL     1     166.369 173.128 168.610 -0.85 -0.15    -0.274 OA
ENDBRANCH  22  23
ENDBRANCH  21  22
ENDBRANCH   5  21
TORSDOF 6
TER
ENDMDL
