MODEL        1
USER    Run = 1
USER
USER    Estimated Free Energy of Binding    =  -3.97 kcal/mol  [=(1)+(2)+(3)-(4)]
USER
USER    (1) Final Intermolecular Energy     =  -5.46 kcal/mol
USER        vdW + Hbond + desolv Energy     =  -5.53 kcal/mol
USER        Electrostatic Energy            =  +0.07 kcal/mol
USER        Moving Ligand-Fixed Receptor    =  -5.46 kcal/mol
USER        Moving Ligand-Moving Receptor   =  +0.00 kcal/mol
USER    (2) Final Total Internal Energy     =  -2.02 kcal/mol
USER    (3) Torsional Free Energy           =  +1.49 kcal/mol
USER    (4) Unbound System's Energy         =  -2.02 kcal/mol
USER
USER
REMARK  Name = Z16165015
REMARK  5 active torsions:
REMARK  status: ('A' for Active; 'I' for Inactive)
REMARK    1  A    between atoms: C_2  and  C_4
REMARK    2  A    between atoms: C_7  and  N_8
REMARK    3  A    between atoms: C_9  and  C_11
REMARK    4  A    between atoms: C_11  and  O_12
REMARK    5  A    between atoms: O_12  and  C_13
REMARK                            x       y       z     vdW  Elec       q    Type
REMARK                         _______ _______ _______ _____ _____    ______ ____
USER                              x       y       z     vdW  Elec       q    Type
USER                           _______ _______ _______ _____ _____    ______ ____
ROOT
ATOM      1  N   UNL     1     164.556 170.195 172.697 -0.17 +0.08    -0.283 N 
ATOM      2  H   UNL     1     163.574 169.937 172.767 +0.11 -0.04    +0.155 HD
ATOM      3  C   UNL     1     165.247 169.871 173.858 -0.14 -0.12    +0.255 C 
ATOM      4  O   UNL     1     166.169 170.526 174.338 -0.21 +0.20    -0.272 OA
ENDROOT
BRANCH   1   8
ATOM      5  C   UNL     1     165.587 173.784 170.767 -0.23 +0.00    +0.037 A 
ATOM      6  C   UNL     1     165.245 172.648 170.016 -0.32 +0.00    +0.015 A 
ATOM      7  C   UNL     1     164.887 171.455 170.651 -0.20 -0.00    +0.024 A 
ATOM      8  C   UNL     1     164.827 171.407 172.041 -0.24 -0.01    +0.034 A 
ATOM      9  C   UNL     1     165.134 172.538 172.800 -0.16 -0.00    +0.024 A 
ATOM     10  C   UNL     1     165.532 173.717 172.165 -0.13 -0.00    +0.015 A 
BRANCH   5  14
ATOM     11  N   UNL     1     166.007 174.978 168.659 +0.15 +0.01    -0.325 N 
ATOM     12  H   UNL     1     165.763 174.187 168.090 -0.45 -0.04    +0.145 HD
ATOM     13  H   UNL     1     166.326 175.819 168.188 -0.24 -0.03    +0.145 HD
ATOM     14  C   UNL     1     166.035 175.001 170.024 -0.15 +0.01    +0.241 C 
ATOM     15  O   UNL     1     166.415 176.003 170.610 -0.17 +0.01    -0.270 OA
ENDBRANCH   5  14
ENDBRANCH   1   8
BRANCH   3  16
ATOM     16  C   UNL     1     164.734 168.592 174.522 -0.17 -0.11    +0.326 C 
BRANCH  16  17
ATOM     17  O   UNL     1     163.451 168.204 174.049 -0.13 +0.10    -0.466 OA
BRANCH  17  18
ATOM     18  C   UNL     1     162.381 168.840 174.642 -0.14 -0.02    +0.227 A 
ATOM     19  C   UNL     1     161.860 168.336 175.837 -0.29 -0.01    +0.069 A 
ATOM     20  C   UNL     1     160.772 169.023 176.350 -0.36 -0.01    +0.115 A 
ATOM     21  S   UNL     1     160.206 168.354 177.813 -0.43 +0.02    -0.077 S 
ATOM     22  C   UNL     1     161.407 167.134 177.790 -0.35 -0.01    +0.048 A 
ATOM     23  N   UNL     1     160.182 170.099 175.804 -0.31 +0.01    -0.228 NA
ATOM     24  C   UNL     1     160.777 170.492 174.674 -0.17 +0.00    +0.226 A 
ATOM     25  C   UNL     1     162.217 167.233 176.681 -0.39 -0.00    +0.023 A 
ATOM     26  N   UNL     1     161.856 169.951 174.081 -0.24 +0.01    -0.201 NA
ENDBRANCH  17  18
ENDBRANCH  16  17
ENDBRANCH   3  16
TORSDOF 5
TER
ENDMDL
