MODEL        1
USER    Run = 1
USER
USER    Estimated Free Energy of Binding    =  -3.06 kcal/mol  [=(1)+(2)+(3)-(4)]
USER
USER    (1) Final Intermolecular Energy     =  -4.85 kcal/mol
USER        vdW + Hbond + desolv Energy     =  -4.79 kcal/mol
USER        Electrostatic Energy            =  -0.06 kcal/mol
USER        Moving Ligand-Fixed Receptor    =  -4.85 kcal/mol
USER        Moving Ligand-Moving Receptor   =  +0.00 kcal/mol
USER    (2) Final Total Internal Energy     =  -2.35 kcal/mol
USER    (3) Torsional Free Energy           =  +1.79 kcal/mol
USER    (4) Unbound System's Energy         =  -2.35 kcal/mol
USER
USER
REMARK  Name = Z16128009
REMARK  10 active torsions:
REMARK  status: ('A' for Active; 'I' for Inactive)
REMARK    1  A    between atoms: C_1  and  C_2
REMARK    2  A    between atoms: C_5  and  C_6
REMARK    3  A    between atoms: C_6  and  O_8
REMARK    4  A    between atoms: O_8  and  C_9
REMARK    5  A    between atoms: C_9  and  C_10
REMARK    6  A    between atoms: N_12  and  C_13
REMARK    7  A    between atoms: C_13  and  C_14
REMARK    8  A    between atoms: C_13  and  C_15
REMARK    9  A    between atoms: C_13  and  C_16
REMARK   10  A    between atoms: C_17  and  O_18
REMARK                            x       y       z     vdW  Elec       q    Type
REMARK                         _______ _______ _______ _____ _____    ______ ____
USER                              x       y       z     vdW  Elec       q    Type
USER                           _______ _______ _______ _____ _____    ______ ____
ROOT
ATOM      1  C   UNL     1     155.309 166.202 178.556 -0.20 -0.17    +0.343 C 
ATOM      2  O   UNL     1     154.745 165.355 177.875 -0.24 +0.11    -0.245 OA
ENDROOT
BRANCH   1   7
ATOM      3  C   UNL     1     160.001 168.956 176.565 -0.51 -0.01    +0.044 C 
ATOM      4  C   UNL     1     158.784 168.258 177.096 -0.43 +0.02    -0.047 A 
ATOM      5  C   UNL     1     158.711 166.861 177.058 -0.24 -0.01    +0.049 A 
ATOM      6  C   UNL     1     157.591 166.195 177.556 -0.27 -0.05    +0.131 A 
ATOM      7  C   UNL     1     156.519 166.921 178.094 -0.36 -0.05    +0.100 A 
ATOM      8  C   UNL     1     156.586 168.321 178.124 -0.38 -0.01    +0.019 A 
ATOM      9  C   UNL     1     157.711 168.984 177.624 -0.42 -0.00    +0.004 A 
BRANCH   6  10
ATOM     10  O   UNL     1     157.614 164.827 177.470 -0.07 +0.20    -0.506 OA
ATOM     11  H   UNL     1     156.697 164.491 177.543 +0.22 -0.13    +0.292 HD
ENDBRANCH   6  10
ENDBRANCH   1   7
BRANCH   1  12
ATOM     12  O   UNL     1     154.891 166.657 179.756 -0.18 +0.29    -0.452 OA
BRANCH  12  13
ATOM     13  C   UNL     1     153.964 167.746 179.694 -0.15 -0.32    +0.328 C 
BRANCH  13  14
ATOM     14  C   UNL     1     152.558 167.179 179.854 -0.15 -0.21    +0.251 C 
ATOM     15  N   UNL     1     152.436 165.847 179.505 -0.12 +0.18    -0.308 N 
ATOM     16  H   UNL     1     153.241 165.412 179.059 +0.08 -0.08    +0.149 HD
ATOM     17  O   UNL     1     151.622 167.886 180.218 -0.12 +0.23    -0.272 OA
BRANCH  15  18
ATOM     18  C   UNL     1     151.159 165.114 179.476 -0.33 -0.01    +0.026 C 
ATOM     19  C   UNL     1     150.630 164.881 180.900 -0.43 -0.00    +0.031 C 
ATOM     20  C   UNL     1     151.401 163.739 178.825 -0.28 -0.01    +0.031 C 
ATOM     21  C   UNL     1     150.112 165.865 178.636 -0.24 -0.01    +0.031 C 
ENDBRANCH  15  18
ENDBRANCH  13  14
ENDBRANCH  12  13
ENDBRANCH   1  12
TORSDOF 6
TER
ENDMDL
