MODEL        1
USER    Run = 1
USER
USER    Estimated Free Energy of Binding    =  -6.29 kcal/mol  [=(1)+(2)+(3)-(4)]
USER
USER    (1) Final Intermolecular Energy     =  -7.18 kcal/mol
USER        vdW + Hbond + desolv Energy     =  -7.20 kcal/mol
USER        Electrostatic Energy            =  +0.01 kcal/mol
USER        Moving Ligand-Fixed Receptor    =  -7.18 kcal/mol
USER        Moving Ligand-Moving Receptor   =  +0.00 kcal/mol
USER    (2) Final Total Internal Energy     =  -0.43 kcal/mol
USER    (3) Torsional Free Energy           =  +0.89 kcal/mol
USER    (4) Unbound System's Energy         =  -0.43 kcal/mol
USER
USER
REMARK  Name = Z16115629
REMARK  3 active torsions:
REMARK  status: ('A' for Active; 'I' for Inactive)
REMARK    1  A    between atoms: C_4  and  C_5
REMARK    2  A    between atoms: C_5  and  O_6
REMARK    3  A    between atoms: O_6  and  C_7
REMARK                            x       y       z     vdW  Elec       q    Type
REMARK                         _______ _______ _______ _____ _____    ______ ____
USER                              x       y       z     vdW  Elec       q    Type
USER                           _______ _______ _______ _____ _____    ______ ____
ROOT
ATOM      1  C   UNL     1     158.069 168.973 177.117 -0.21 -0.15    +0.284 C 
ENDROOT
BRANCH   1   9
ATOM      2  O   UNL     1     156.438 164.397 177.100 -0.24 +0.13    -0.267 OA
ATOM      3  C   UNL     1     156.289 165.555 177.476 -0.25 -0.12    +0.259 C 
ATOM      4  N   UNL     1     155.265 166.012 178.264 -0.23 +0.13    -0.262 N 
ATOM      5  C   UNL     1     155.202 167.338 178.624 -0.30 -0.12    +0.180 A 
ATOM      6  S   UNL     1     153.780 167.591 179.627 -0.49 +0.05    -0.058 S 
ATOM      7  C   UNL     1     153.360 165.904 179.502 -0.29 -0.04    +0.067 A 
ATOM      8  N   UNL     1     156.036 168.265 178.293 -0.33 +0.14    -0.224 NA
ATOM      9  C   UNL     1     157.094 167.865 177.496 -0.49 -0.05    +0.086 C 
ATOM     10  C   UNL     1     154.243 165.232 178.757 -0.21 -0.05    +0.104 A 
ATOM     11  C   UNL     1     157.260 166.594 177.082 -0.44 -0.05    +0.097 C 
ENDBRANCH   1   9
BRANCH   1  12
ATOM     12  O   UNL     1     159.292 168.816 177.837 -0.18 +0.16    -0.486 OA
BRANCH  12  13
ATOM     13  C   UNL     1     160.403 168.420 177.152 -0.39 -0.02    +0.121 A 
ATOM     14  C   UNL     1     160.735 169.262 176.085 -0.40 -0.00    +0.049 A 
ATOM     15  C   UNL     1     161.844 168.968 175.309 -0.30 +0.00    -0.041 A 
ATOM     16  C   UNL     1     162.625 167.850 175.578 -0.34 +0.01    -0.044 A 
ATOM     17  C   UNL     1     163.764 167.730 174.621 -0.48 -0.01    +0.036 C 
ATOM     18  C   UNL     1     163.576 168.936 173.685 -0.45 -0.00    +0.009 C 
ATOM     19  C   UNL     1     162.312 167.005 176.632 -0.38 -0.00    +0.007 A 
ATOM     20  C   UNL     1     162.359 169.749 174.148 -0.38 -0.00    +0.036 C 
ATOM     21  C   UNL     1     161.192 167.295 177.425 -0.41 -0.01    +0.046 A 
ENDBRANCH  12  13
ENDBRANCH   1  12
TORSDOF 3
TER
ENDMDL
