MODEL        1
USER    Run = 1
USER
USER    Estimated Free Energy of Binding    =  -4.78 kcal/mol  [=(1)+(2)+(3)-(4)]
USER
USER    (1) Final Intermolecular Energy     =  -6.87 kcal/mol
USER        vdW + Hbond + desolv Energy     =  -6.64 kcal/mol
USER        Electrostatic Energy            =  -0.23 kcal/mol
USER        Moving Ligand-Fixed Receptor    =  -6.87 kcal/mol
USER        Moving Ligand-Moving Receptor   =  +0.00 kcal/mol
USER    (2) Final Total Internal Energy     =  -2.12 kcal/mol
USER    (3) Torsional Free Energy           =  +2.09 kcal/mol
USER    (4) Unbound System's Energy         =  -2.12 kcal/mol
USER
USER
REMARK  Name = Z16172542
REMARK  9 active torsions:
REMARK  status: ('A' for Active; 'I' for Inactive)
REMARK    1  A    between atoms: C_1  and  C_2
REMARK    2  A    between atoms: C_2  and  N_3
REMARK    3  A    between atoms: C_4  and  C_6
REMARK    4  A    between atoms: C_6  and  S_7
REMARK    5  A    between atoms: S_7  and  C_8
REMARK    6  A    between atoms: C_11  and  C_12
REMARK    7  A    between atoms: N_18  and  C_19
REMARK    8  A    between atoms: C_22  and  O_23
REMARK    9  A    between atoms: O_23  and  C_24
REMARK                            x       y       z     vdW  Elec       q    Type
REMARK                         _______ _______ _______ _____ _____    ______ ____
USER                              x       y       z     vdW  Elec       q    Type
USER                           _______ _______ _______ _____ _____    ______ ____
ROOT
ATOM      1  C   UNL     1     164.865 170.803 172.953 -0.15 -0.06    +0.197 A 
ATOM      2  N   UNL     1     163.928 171.119 173.931 -0.09 +0.06    -0.270 N 
ATOM      3  C   UNL     1     162.952 170.120 173.775 -0.13 -0.03    +0.169 A 
ATOM      4  N   UNL     1     163.231 169.427 172.682 -0.30 +0.03    -0.128 NA
ATOM      5  N   UNL     1     164.428 169.836 172.186 -0.29 +0.03    -0.122 NA
ENDROOT
BRANCH   2   6
ATOM      6  C   UNL     1     163.911 172.206 174.866 -0.15 -0.01    +0.052 A 
ATOM      7  C   UNL     1     164.824 173.264 174.791 -0.12 -0.01    +0.050 A 
ATOM      8  C   UNL     1     164.854 174.245 175.794 -0.12 +0.00    +0.085 A 
ATOM      9 CL   UNL     1     166.010 175.523 175.639 -0.15 +0.00    -0.080 Cl
ATOM     10  C   UNL     1     163.984 174.185 176.891 -0.16 +0.05    +0.139 A 
ATOM     11  C   UNL     1     163.050 173.149 176.945 -0.21 +0.01    +0.049 A 
ATOM     12  C   UNL     1     162.991 172.191 175.926 -0.08 +0.00    +0.030 A 
BRANCH  10  13
ATOM     13  O   UNL     1     164.138 175.127 177.872 -0.46 -0.29    -0.494 OA
ATOM     14  C   UNL     1     163.302 174.999 179.016 -0.02 +0.07    +0.277 C 
ENDBRANCH  10  13
ENDBRANCH   2   6
BRANCH   3  15
ATOM     15  C   UNL     1     161.830 169.749 174.664 -0.37 -0.00    +0.020 A 
ATOM     16  C   UNL     1     162.027 168.730 175.614 -0.29 -0.00    +0.012 A 
ATOM     17  C   UNL     1     161.032 168.399 176.540 -0.44 -0.00    +0.001 A 
ATOM     18  C   UNL     1     159.813 169.067 176.521 -0.46 -0.00    +0.000 A 
ATOM     19  C   UNL     1     159.593 170.073 175.584 -0.38 -0.00    +0.001 A 
ATOM     20  C   UNL     1     160.603 170.427 174.683 -0.37 +0.00    +0.012 A 
ENDBRANCH   3  15
BRANCH   1  21
ATOM     21  S   UNL     1     166.371 171.617 172.649 -0.20 +0.03    -0.076 S 
BRANCH  21  22
ATOM     22  C   UNL     1     165.782 173.134 171.844 -0.11 -0.01    +0.173 C 
BRANCH  22  25
ATOM     23  N   UNL     1     164.188 172.065 170.331 -0.10 +0.06    -0.315 N 
ATOM     24  H   UNL     1     163.778 171.679 171.171 +0.09 -0.03    +0.149 HD
ATOM     25  C   UNL     1     165.344 172.813 170.425 -0.18 +0.02    +0.223 C 
ATOM     26  O   UNL     1     165.981 173.194 169.444 -0.80 -0.12    -0.275 OA
BRANCH  23  28
ATOM     27  C   UNL     1     162.638 172.656 168.511 -0.33 -0.01    +0.024 C 
ATOM     28  C   UNL     1     163.644 171.654 169.050 -0.29 -0.03    +0.101 C 
ENDBRANCH  23  28
ENDBRANCH  22  25
ENDBRANCH  21  22
ENDBRANCH   1  21
TORSDOF 7
TER
ENDMDL
