MODEL        1
USER    Run = 1
USER
USER    Estimated Free Energy of Binding    =  -5.13 kcal/mol  [=(1)+(2)+(3)-(4)]
USER
USER    (1) Final Intermolecular Energy     =  -6.92 kcal/mol
USER        vdW + Hbond + desolv Energy     =  -6.95 kcal/mol
USER        Electrostatic Energy            =  +0.04 kcal/mol
USER        Moving Ligand-Fixed Receptor    =  -6.92 kcal/mol
USER        Moving Ligand-Moving Receptor   =  +0.00 kcal/mol
USER    (2) Final Total Internal Energy     =  -2.72 kcal/mol
USER    (3) Torsional Free Energy           =  +1.79 kcal/mol
USER    (4) Unbound System's Energy         =  -2.72 kcal/mol
USER
USER
REMARK  Name = Z16209855
REMARK  6 active torsions:
REMARK  status: ('A' for Active; 'I' for Inactive)
REMARK    1  A    between atoms: C_2  and  C_4
REMARK    2  A    between atoms: C_8  and  N_9
REMARK    3  A    between atoms: C_10  and  C_12
REMARK    4  A    between atoms: C_12  and  O_13
REMARK    5  A    between atoms: O_13  and  C_14
REMARK    6  A    between atoms: C_14  and  C_16
REMARK                            x       y       z     vdW  Elec       q    Type
REMARK                         _______ _______ _______ _____ _____    ______ ____
USER                              x       y       z     vdW  Elec       q    Type
USER                           _______ _______ _______ _____ _____    ______ ____
ROOT
ATOM      1  N   UNL     1     162.960 169.219 174.586 -0.16 +0.05    -0.277 N 
ATOM      2  H   UNL     1     162.058 169.652 174.749 +0.11 -0.01    +0.155 HD
ATOM      3  C   UNL     1     163.029 167.874 174.912 -0.26 -0.05    +0.255 C 
ATOM      4  O   UNL     1     163.781 167.047 174.402 -0.34 +0.07    -0.272 OA
ENDROOT
BRANCH   1   6
ATOM      5  C   UNL     1     163.675 169.604 172.177 -0.26 -0.02    +0.065 A 
ATOM      6  C   UNL     1     163.714 169.733 173.556 -0.28 -0.02    +0.084 A 
ATOM      7  S   UNL     1     164.967 170.736 174.120 -0.39 +0.03    -0.081 S 
ATOM      8  C   UNL     1     165.399 171.175 172.530 -0.24 -0.01    +0.048 A 
ATOM      9  C   UNL     1     164.663 170.480 171.594 -0.23 -0.01    +0.022 A 
BRANCH   5  13
ATOM     10  N   UNL     1     163.001 167.348 171.786 -0.10 +0.12    -0.325 N 
ATOM     11  H   UNL     1     163.846 167.035 172.239 +0.12 -0.03    +0.145 HD
ATOM     12  H   UNL     1     162.489 166.682 171.226 -0.31 -0.11    +0.145 HD
ATOM     13  C   UNL     1     162.826 168.664 171.454 -0.24 -0.09    +0.244 C 
ATOM     14  O   UNL     1     161.963 168.991 170.647 -0.34 +0.15    -0.270 OA
ENDBRANCH   5  13
ENDBRANCH   1   6
BRANCH   3  15
ATOM     15  C   UNL     1     162.010 167.488 175.987 -0.16 -0.03    +0.328 C 
BRANCH  15  16
ATOM     16  O   UNL     1     161.480 168.660 176.632 -0.16 +0.04    -0.451 OA
BRANCH  16  17
ATOM     17  C   UNL     1     160.319 169.171 176.132 -0.19 -0.03    +0.346 C 
ATOM     18  O   UNL     1     160.263 170.088 175.323 -0.42 +0.00    -0.244 OA
BRANCH  17  19
ATOM     19  C   UNL     1     159.153 168.499 176.692 -0.35 -0.03    +0.097 A 
ATOM     20  S   UNL     1     157.750 169.359 177.243 -0.28 +0.05    -0.086 S 
ATOM     21  C   UNL     1     156.998 167.927 177.670 -0.48 +0.00    -0.006 A 
ATOM     22  C   UNL     1     157.741 166.810 177.422 -0.36 +0.02    -0.036 A 
ATOM     23  C   UNL     1     157.027 165.574 177.814 -0.42 -0.01    +0.036 C 
ATOM     24  C   UNL     1     155.653 166.101 178.339 -0.45 -0.00    +0.010 C 
ATOM     25  C   UNL     1     155.671 167.660 178.267 -0.51 -0.03    +0.043 C 
ATOM     26  C   UNL     1     158.996 167.124 176.858 -0.23 -0.01    +0.026 A 
ENDBRANCH  17  19
ENDBRANCH  16  17
ENDBRANCH  15  16
ENDBRANCH   3  15
TORSDOF 6
TER
ENDMDL
