MODEL        1
USER    Run = 1
USER
USER    Estimated Free Energy of Binding    =  -2.78 kcal/mol  [=(1)+(2)+(3)-(4)]
USER
USER    (1) Final Intermolecular Energy     =  -5.16 kcal/mol
USER        vdW + Hbond + desolv Energy     =  -4.97 kcal/mol
USER        Electrostatic Energy            =  -0.19 kcal/mol
USER        Moving Ligand-Fixed Receptor    =  -5.16 kcal/mol
USER        Moving Ligand-Moving Receptor   =  +0.00 kcal/mol
USER    (2) Final Total Internal Energy     =  -3.17 kcal/mol
USER    (3) Torsional Free Energy           =  +2.39 kcal/mol
USER    (4) Unbound System's Energy         =  -3.17 kcal/mol
USER
USER
REMARK  Name = Z16215731
REMARK  9 active torsions:
REMARK  status: ('A' for Active; 'I' for Inactive)
REMARK    1  A    between atoms: C_1  and  O_2
REMARK    2  A    between atoms: O_2  and  C_3
REMARK    3  A    between atoms: C_3  and  C_4
REMARK    4  A    between atoms: C_4  and  N_5
REMARK    5  A    between atoms: C_6  and  S_7
REMARK    6  A    between atoms: S_7  and  C_8
REMARK    7  A    between atoms: C_8  and  C_9
REMARK    8  A    between atoms: N_11  and  C_12
REMARK    9  A    between atoms: C_20  and  C_21
REMARK                            x       y       z     vdW  Elec       q    Type
REMARK                         _______ _______ _______ _____ _____    ______ ____
USER                              x       y       z     vdW  Elec       q    Type
USER                           _______ _______ _______ _____ _____    ______ ____
ROOT
ATOM      1  C   UNL     1     166.337 175.140 170.226 -0.16 +0.01    +0.228 C 
ATOM      2  N   UNL     1     165.131 174.962 170.901 -0.09 +0.03    -0.279 N 
ATOM      3  H   UNL     1     164.873 175.768 171.465 +0.07 -0.04    +0.155 HD
ATOM      4  O   UNL     1     167.128 174.238 169.955 -0.33 -0.16    -0.275 OA
ENDROOT
BRANCH   2   5
ATOM      5  C   UNL     1     164.813 173.724 171.445 -0.15 -0.01    +0.084 A 
ATOM      6  C   UNL     1     164.485 172.532 170.814 -0.18 -0.01    +0.068 A 
ATOM      7  C   UNL     1     164.481 171.442 171.770 -0.19 +0.00    -0.023 A 
ATOM      8  C   UNL     1     164.827 171.867 173.039 -0.20 +0.00    -0.004 A 
ATOM      9  C   UNL     1     164.948 170.986 174.247 -0.27 -0.02    +0.043 C 
ATOM     10  C   UNL     1     165.003 169.505 173.837 -0.37 -0.00    +0.005 C 
ATOM     11  C   UNL     1     163.951 169.179 172.771 -0.41 -0.00    +0.005 C 
ATOM     12  C   UNL     1     164.178 169.991 171.484 -0.23 -0.01    +0.037 C 
ATOM     13  S   UNL     1     165.062 173.550 173.121 -0.20 +0.01    -0.077 S 
BRANCH   6  14
ATOM     14  C   UNL     1     164.173 172.389 169.393 -0.25 -0.05    +0.244 C 
ATOM     15  N   UNL     1     165.151 172.785 168.521 -0.20 +0.04    -0.325 N 
ATOM     16  H   UNL     1     164.854 172.867 167.558 -0.36 -0.08    +0.145 HD
ATOM     17  H   UNL     1     165.862 173.429 168.843 +0.03 +0.03    +0.145 HD
ATOM     18  O   UNL     1     163.091 172.000 168.965 -0.34 +0.09    -0.270 OA
ENDBRANCH   6  14
ENDBRANCH   2   5
BRANCH   1  19
ATOM     19  C   UNL     1     166.641 176.597 169.844 -0.13 -0.01    +0.173 C 
BRANCH  19  20
ATOM     20  S   UNL     1     167.580 177.434 171.165 -0.16 +0.01    -0.078 S 
BRANCH  20  29
ATOM     21  N   UNL     1     167.225 176.684 173.782 +0.01 +0.06    -0.316 N 
ATOM     22  C   UNL     1     166.199 176.380 174.655 -0.03 -0.01    +0.070 A 
ATOM     23  C   UNL     1     165.041 176.609 173.915 -0.04 -0.02    +0.090 A 
ATOM     24  C   UNL     1     163.794 176.325 174.495 -0.09 +0.00    +0.030 A 
ATOM     25  C   UNL     1     163.745 175.835 175.808 -0.04 +0.00    +0.002 A 
ATOM     26  C   UNL     1     164.917 175.642 176.538 -0.08 +0.00    +0.002 A 
ATOM     27  N   UNL     1     165.344 177.072 172.654 -0.04 +0.07    -0.222 NA
ATOM     28  C   UNL     1     166.171 175.913 175.979 -0.01 +0.00    +0.028 A 
ATOM     29  C   UNL     1     166.656 177.077 172.591 +0.01 -0.03    +0.170 A 
BRANCH  21  30
ATOM     30  C   UNL     1     168.635 176.481 174.070 +0.02 -0.03    +0.152 C 
BRANCH  30  31
ATOM     31  C   UNL     1     169.223 177.456 175.081 -0.06 -0.04    +0.181 C 
BRANCH  31  33
ATOM     32  C   UNL     1     169.435 177.666 177.418 -0.06 -0.08    +0.193 C 
ATOM     33  O   UNL     1     168.601 177.234 176.350 -0.46 +0.03    -0.381 OA
ENDBRANCH  31  33
ENDBRANCH  30  31
ENDBRANCH  21  30
ENDBRANCH  20  29
ENDBRANCH  19  20
ENDBRANCH   1  19
TORSDOF 8
TER
ENDMDL
