MODEL        1
USER    Run = 1
USER
USER    Estimated Free Energy of Binding    =  -5.14 kcal/mol  [=(1)+(2)+(3)-(4)]
USER
USER    (1) Final Intermolecular Energy     =  -6.34 kcal/mol
USER        vdW + Hbond + desolv Energy     =  -6.29 kcal/mol
USER        Electrostatic Energy            =  -0.05 kcal/mol
USER        Moving Ligand-Fixed Receptor    =  -6.34 kcal/mol
USER        Moving Ligand-Moving Receptor   =  +0.00 kcal/mol
USER    (2) Final Total Internal Energy     =  -1.46 kcal/mol
USER    (3) Torsional Free Energy           =  +1.19 kcal/mol
USER    (4) Unbound System's Energy         =  -1.46 kcal/mol
USER
USER
REMARK  Name = Z16224803
REMARK  4 active torsions:
REMARK  status: ('A' for Active; 'I' for Inactive)
REMARK    1  A    between atoms: C_8  and  N_9
REMARK    2  A    between atoms: C_10  and  C_12
REMARK    3  A    between atoms: C_12  and  S_13
REMARK    4  A    between atoms: S_13  and  C_14
REMARK                            x       y       z     vdW  Elec       q    Type
REMARK                         _______ _______ _______ _____ _____    ______ ____
USER                              x       y       z     vdW  Elec       q    Type
USER                           _______ _______ _______ _____ _____    ______ ____
ROOT
ATOM      1  C   UNL     1     151.744 168.973 181.669 -0.17 -0.18    +0.173 C 
ENDROOT
BRANCH   1   4
ATOM      2  N   UNL     1     153.608 167.865 180.474 -0.04 +0.32    -0.282 N 
ATOM      3  H   UNL     1     153.797 167.498 181.408 -0.34 -0.20    +0.155 HD
ATOM      4  C   UNL     1     152.554 168.731 180.367 -0.20 -0.24    +0.228 C 
ATOM      5  O   UNL     1     152.277 169.364 179.346 -0.22 +0.29    -0.275 OA
BRANCH   2   8
ATOM      6  F   UNL     1     153.392 165.396 179.398 -0.07 +0.10    -0.203 F 
ATOM      7  C   UNL     1     154.414 166.156 178.985 -0.28 -0.08    +0.145 A 
ATOM      8  C   UNL     1     154.552 167.459 179.485 -0.33 -0.06    +0.070 A 
ATOM      9  C   UNL     1     155.596 168.242 178.973 -0.18 -0.03    +0.046 A 
ATOM     10  C   UNL     1     156.463 167.712 178.002 -0.45 -0.02    +0.043 A 
ATOM     11 CL   UNL     1     157.747 168.670 177.368 -0.63 +0.05    -0.084 Cl
ATOM     12  C   UNL     1     156.313 166.396 177.532 -0.43 -0.01    +0.023 A 
ATOM     13  C   UNL     1     155.274 165.621 178.027 -0.27 -0.02    +0.041 A 
ENDBRANCH   2   8
ENDBRANCH   1   4
BRANCH   1  14
ATOM     14  S   UNL     1     149.861 169.096 181.478 -0.17 +0.06    -0.076 S 
BRANCH  14  15
ATOM     15  C   UNL     1     149.437 167.414 181.247 -0.07 -0.11    +0.198 A 
ATOM     16  N   UNL     1     149.934 166.515 180.310 -0.09 +0.10    -0.253 N 
ATOM     17  C   UNL     1     150.384 165.460 181.105 -0.21 -0.06    +0.257 A 
ATOM     18  N   UNL     1     151.001 164.467 180.425 -0.24 +0.03    -0.213 NA
ATOM     19  C   UNL     1     150.755 164.761 179.176 -0.24 -0.02    +0.073 A 
ATOM     20  C   UNL     1     151.047 163.800 178.065 -0.27 -0.02    +0.084 C 
ATOM     21  C   UNL     1     150.504 164.297 176.770 -0.17 +0.01    -0.021 C 
ATOM     22  C   UNL     1     149.868 165.474 176.634 -0.24 +0.00    -0.002 C 
ATOM     23  C   UNL     1     149.629 166.387 177.764 -0.22 -0.02    +0.028 C 
ATOM     24  N   UNL     1     149.884 165.569 182.305 -0.39 +0.03    -0.108 NA
ATOM     25  C   UNL     1     150.051 166.083 178.996 -0.17 -0.03    +0.073 A 
ATOM     26  N   UNL     1     149.169 166.736 182.350 -0.19 +0.07    -0.120 NA
ENDBRANCH  14  15
ENDBRANCH   1  14
TORSDOF 4
TER
ENDMDL
