MODEL        1
USER    Run = 1
USER
USER    Estimated Free Energy of Binding    =  -6.80 kcal/mol  [=(1)+(2)+(3)-(4)]
USER
USER    (1) Final Intermolecular Energy     =  -8.29 kcal/mol
USER        vdW + Hbond + desolv Energy     =  -8.25 kcal/mol
USER        Electrostatic Energy            =  -0.03 kcal/mol
USER        Moving Ligand-Fixed Receptor    =  -8.29 kcal/mol
USER        Moving Ligand-Moving Receptor   =  +0.00 kcal/mol
USER    (2) Final Total Internal Energy     =  -0.56 kcal/mol
USER    (3) Torsional Free Energy           =  +1.49 kcal/mol
USER    (4) Unbound System's Energy         =  -0.56 kcal/mol
USER
USER
REMARK  Name = Z16211414
REMARK  6 active torsions:
REMARK  status: ('A' for Active; 'I' for Inactive)
REMARK    1  A    between atoms: C_1  and  C_2
REMARK    2  A    between atoms: C_2  and  N_3
REMARK    3  A    between atoms: C_4  and  S_5
REMARK    4  A    between atoms: S_5  and  C_6
REMARK    5  A    between atoms: C_6  and  C_7
REMARK    6  A    between atoms: C_18  and  C_19
REMARK                            x       y       z     vdW  Elec       q    Type
REMARK                         _______ _______ _______ _____ _____    ______ ____
USER                              x       y       z     vdW  Elec       q    Type
USER                           _______ _______ _______ _____ _____    ______ ____
ROOT
ATOM      1  N   UNL     1     156.338 166.514 177.846 -0.23 +0.15    -0.302 N 
ATOM      2  C   UNL     1     155.264 167.139 178.477 -0.32 -0.10    +0.165 A 
ATOM      3  N   UNL     1     155.586 168.424 178.589 -0.37 +0.09    -0.128 NA
ATOM      4  N   UNL     1     156.834 168.643 178.067 -0.40 +0.07    -0.122 NA
ATOM      5  C   UNL     1     157.281 167.498 177.619 -0.27 -0.10    +0.192 A 
ENDROOT
BRANCH   2   6
ATOM      6  C   UNL     1     153.997 166.584 179.030 -0.36 -0.01    +0.019 A 
ATOM      7  C   UNL     1     153.358 165.410 178.608 -0.30 -0.01    +0.013 A 
ATOM      8  C   UNL     1     152.239 164.893 179.281 -0.31 -0.01    +0.021 A 
ATOM      9  C   UNL     1     151.708 165.566 180.375 -0.28 -0.02    +0.041 A 
ATOM     10 CL   UNL     1     150.382 164.893 181.237 -0.56 +0.01    -0.084 Cl
ATOM     11  C   UNL     1     152.264 166.773 180.774 -0.27 -0.01    +0.021 A 
ATOM     12  C   UNL     1     153.391 167.273 180.106 -0.33 -0.01    +0.013 A 
ENDBRANCH   2   6
BRANCH   1  14
ATOM     13  C   UNL     1     156.999 164.873 176.115 -0.42 -0.02    +0.027 C 
ATOM     14  C   UNL     1     156.500 165.111 177.532 -0.29 -0.05    +0.122 C 
ENDBRANCH   1  14
BRANCH   5  15
ATOM     15  S   UNL     1     158.832 167.237 176.869 -0.46 +0.02    -0.080 S 
BRANCH  15  16
ATOM     16  C   UNL     1     159.596 168.890 176.990 -0.45 -0.03    +0.134 C 
BRANCH  16  17
ATOM     17  C   UNL     1     160.859 169.007 176.183 -0.37 -0.01    +0.070 A 
ATOM     18  N   UNL     1     161.689 167.917 175.974 -0.24 +0.02    -0.232 NA
ATOM     19  C   UNL     1     162.637 168.327 175.152 -0.23 -0.02    +0.138 A 
ATOM     20  N   UNL     1     162.464 169.664 174.812 -0.15 +0.04    -0.306 N 
ATOM     21  C   UNL     1     163.314 170.356 173.950 -0.19 -0.02    +0.092 A 
ATOM     22  C   UNL     1     164.363 169.716 173.400 -0.34 -0.01    +0.018 A 
ATOM     23  C   UNL     1     164.573 168.312 173.725 -0.37 -0.00    +0.005 A 
ATOM     24  C   UNL     1     163.748 167.651 174.562 -0.40 -0.01    +0.047 A 
ATOM     25  C   UNL     1     161.333 170.095 175.466 -0.34 -0.00    +0.116 A 
ENDBRANCH  16  17
ENDBRANCH  15  16
ENDBRANCH   5  15
TORSDOF 5
TER
ENDMDL
