MODEL        1
USER    Run = 1
USER
USER    Estimated Free Energy of Binding    =  -5.76 kcal/mol  [=(1)+(2)+(3)-(4)]
USER
USER    (1) Final Intermolecular Energy     =  -7.25 kcal/mol
USER        vdW + Hbond + desolv Energy     =  -7.24 kcal/mol
USER        Electrostatic Energy            =  -0.00 kcal/mol
USER        Moving Ligand-Fixed Receptor    =  -7.25 kcal/mol
USER        Moving Ligand-Moving Receptor   =  +0.00 kcal/mol
USER    (2) Final Total Internal Energy     =  -2.05 kcal/mol
USER    (3) Torsional Free Energy           =  +1.49 kcal/mol
USER    (4) Unbound System's Energy         =  -2.05 kcal/mol
USER
USER
REMARK  Name = Z16208512
REMARK  6 active torsions:
REMARK  status: ('A' for Active; 'I' for Inactive)
REMARK    1  A    between atoms: C_1  and  C_2
REMARK    2  A    between atoms: C_2  and  O_3
REMARK    3  A    between atoms: C_2  and  C_15
REMARK    4  A    between atoms: O_3  and  C_4
REMARK    5  A    between atoms: C_4  and  C_6
REMARK    6  A    between atoms: N_17  and  C_18
REMARK                            x       y       z     vdW  Elec       q    Type
REMARK                         _______ _______ _______ _____ _____    ______ ____
USER                              x       y       z     vdW  Elec       q    Type
USER                           _______ _______ _______ _____ _____    ______ ____
ROOT
ATOM      1  C   UNL     1     161.930 166.680 177.844 -0.44 -0.01    +0.062 C 
ATOM      2  C   UNL     1     161.264 167.526 176.757 -0.27 -0.03    +0.259 C 
ENDROOT
BRANCH   2   3
ATOM      3  C   UNL     1     162.329 167.923 175.716 -0.22 -0.03    +0.258 C 
ATOM      4  N   UNL     1     162.122 169.152 175.116 -0.18 +0.03    -0.282 N 
ATOM      5  H   UNL     1     161.618 169.832 175.672 +0.11 -0.01    +0.155 HD
ATOM      6  O   UNL     1     163.261 167.167 175.439 -0.31 +0.06    -0.271 OA
BRANCH   4   7
ATOM      7  C   UNL     1     162.924 169.624 174.056 -0.31 -0.01    +0.037 A 
ATOM      8  C   UNL     1     163.705 170.761 174.264 -0.16 -0.02    +0.073 A 
ATOM      9  C   UNL     1     164.507 171.187 173.224 -0.13 -0.05    +0.168 A 
ATOM     10  C   UNL     1     164.511 170.560 171.999 -0.17 -0.04    +0.166 A 
ATOM     11  O   UNL     1     165.361 171.148 171.116 -0.10 +0.04    -0.453 OA
ATOM     12  C   UNL     1     165.894 172.218 171.924 +0.06 -0.03    +0.466 C 
ATOM     13  C   UNL     1     163.727 169.458 171.750 -0.24 -0.01    +0.051 A 
ATOM     14  O   UNL     1     165.375 172.235 173.270 -0.01 +0.12    -0.453 OA
ATOM     15  C   UNL     1     162.935 168.978 172.798 -0.36 -0.01    +0.027 A 
ENDBRANCH   4   7
ENDBRANCH   2   3
BRANCH   2  16
ATOM     16  O   UNL     1     160.556 168.628 177.357 -0.24 +0.10    -0.448 OA
BRANCH  16  17
ATOM     17  C   UNL     1     159.439 168.980 176.638 -0.22 -0.08    +0.347 C 
ATOM     18  O   UNL     1     159.471 169.706 175.653 -0.39 +0.03    -0.244 OA
BRANCH  17  19
ATOM     19  C   UNL     1     158.229 168.376 177.180 -0.36 -0.05    +0.097 A 
ATOM     20  S   UNL     1     157.982 166.698 176.896 -0.52 +0.04    -0.086 S 
ATOM     21  C   UNL     1     156.502 166.692 177.727 -0.45 +0.00    -0.006 A 
ATOM     22  C   UNL     1     156.170 167.931 178.222 -0.44 +0.02    -0.036 A 
ATOM     23  C   UNL     1     154.912 168.187 178.976 -0.44 -0.03    +0.036 C 
ATOM     24  C   UNL     1     153.976 166.983 179.129 -0.42 -0.00    +0.005 C 
ATOM     25  C   UNL     1     154.387 165.606 178.588 -0.39 -0.00    +0.005 C 
ATOM     26  C   UNL     1     155.718 165.438 177.858 -0.35 -0.02    +0.043 C 
ATOM     27  C   UNL     1     157.185 168.905 177.916 -0.29 -0.02    +0.026 A 
ENDBRANCH  17  19
ENDBRANCH  16  17
ENDBRANCH   2  16
TORSDOF 5
TER
ENDMDL
