MODEL        1
USER    Run = 1
USER
USER    Estimated Free Energy of Binding    =  -3.88 kcal/mol  [=(1)+(2)+(3)-(4)]
USER
USER    (1) Final Intermolecular Energy     =  -5.37 kcal/mol
USER        vdW + Hbond + desolv Energy     =  -4.91 kcal/mol
USER        Electrostatic Energy            =  -0.46 kcal/mol
USER        Moving Ligand-Fixed Receptor    =  -5.37 kcal/mol
USER        Moving Ligand-Moving Receptor   =  +0.00 kcal/mol
USER    (2) Final Total Internal Energy     =  -2.42 kcal/mol
USER    (3) Torsional Free Energy           =  +1.49 kcal/mol
USER    (4) Unbound System's Energy         =  -2.42 kcal/mol
USER
USER
REMARK  Name = Z16210072
REMARK  6 active torsions:
REMARK  status: ('A' for Active; 'I' for Inactive)
REMARK    1  A    between atoms: C_1  and  C_2
REMARK    2  A    between atoms: C_2  and  O_3
REMARK    3  A    between atoms: C_2  and  C_14
REMARK    4  A    between atoms: O_3  and  C_4
REMARK    5  A    between atoms: C_4  and  C_6
REMARK    6  A    between atoms: N_16  and  C_17
REMARK                            x       y       z     vdW  Elec       q    Type
REMARK                         _______ _______ _______ _____ _____    ______ ____
USER                              x       y       z     vdW  Elec       q    Type
USER                           _______ _______ _______ _____ _____    ______ ____
ROOT
ATOM      1  C   UNL     1     165.385 176.302 174.833 -0.00 -0.01    +0.258 C 
ATOM      2  N   UNL     1     164.585 175.582 173.963 -0.04 +0.04    -0.282 N 
ATOM      3  H   UNL     1     163.763 175.161 174.380 +0.06 +0.01    +0.155 HD
ATOM      4  O   UNL     1     166.578 176.542 174.661 -0.06 +0.03    -0.271 OA
ENDROOT
BRANCH   2   5
ATOM      5  C   UNL     1     165.040 175.071 172.735 -0.10 -0.01    +0.037 A 
ATOM      6  C   UNL     1     164.191 174.233 172.013 -0.07 -0.02    +0.072 A 
ATOM      7  C   UNL     1     164.626 173.670 170.815 -0.14 -0.02    +0.164 A 
ATOM      8  C   UNL     1     165.893 173.980 170.308 -0.17 +0.03    +0.162 A 
ATOM      9  O   UNL     1     166.382 173.461 169.138 -0.72 -0.29    -0.485 OA
ATOM     10  C   UNL     1     165.646 172.303 168.733 -0.18 +0.05    +0.270 C 
ATOM     11  C   UNL     1     164.148 172.538 168.851 -0.18 -0.08    +0.270 C 
ATOM     12  C   UNL     1     166.721 174.862 170.997 -0.17 +0.00    +0.051 A 
ATOM     13  O   UNL     1     163.765 172.795 170.206 -0.05 +0.11    -0.485 OA
ATOM     14  C   UNL     1     166.302 175.393 172.220 -0.08 -0.00    +0.027 A 
ENDBRANCH   2   5
BRANCH   1  16
ATOM     15  C   UNL     1     164.145 178.223 175.739 -0.00 +0.02    +0.062 C 
ATOM     16  C   UNL     1     164.647 176.823 176.073 -0.00 +0.08    +0.259 C 
BRANCH  16  17
ATOM     17  O   UNL     1     163.548 175.977 176.452 -0.43 -0.41    -0.448 OA
BRANCH  17  18
ATOM     18  C   UNL     1     163.914 174.880 177.189 -0.05 +0.17    +0.347 C 
ATOM     19  O   UNL     1     164.017 174.889 178.412 -0.69 -0.13    -0.244 OA
BRANCH  18  20
ATOM     20  C   UNL     1     164.143 173.736 176.323 -0.16 +0.02    +0.097 A 
ATOM     21  S   UNL     1     162.761 172.955 175.622 -0.34 -0.02    -0.086 S 
ATOM     22  C   UNL     1     163.738 171.851 174.841 -0.17 +0.00    -0.006 A 
ATOM     23  C   UNL     1     165.074 172.026 175.070 -0.12 +0.01    -0.036 A 
ATOM     24  C   UNL     1     165.883 171.017 174.347 -0.28 -0.02    +0.036 C 
ATOM     25  C   UNL     1     164.813 170.153 173.603 -0.38 -0.00    +0.010 C 
ATOM     26  C   UNL     1     163.402 170.723 173.945 -0.22 -0.01    +0.043 C 
ATOM     27  C   UNL     1     165.326 173.116 175.929 -0.17 -0.00    +0.026 A 
ENDBRANCH  18  20
ENDBRANCH  17  18
ENDBRANCH  16  17
ENDBRANCH   1  16
TORSDOF 5
TER
ENDMDL
