MODEL        1
USER    Run = 1
USER
USER    Estimated Free Energy of Binding    =  -5.83 kcal/mol  [=(1)+(2)+(3)-(4)]
USER
USER    (1) Final Intermolecular Energy     =  -7.32 kcal/mol
USER        vdW + Hbond + desolv Energy     =  -7.28 kcal/mol
USER        Electrostatic Energy            =  -0.04 kcal/mol
USER        Moving Ligand-Fixed Receptor    =  -7.32 kcal/mol
USER        Moving Ligand-Moving Receptor   =  +0.00 kcal/mol
USER    (2) Final Total Internal Energy     =  -0.74 kcal/mol
USER    (3) Torsional Free Energy           =  +1.49 kcal/mol
USER    (4) Unbound System's Energy         =  -0.74 kcal/mol
USER
USER
REMARK  Name = Z16210294
REMARK  5 active torsions:
REMARK  status: ('A' for Active; 'I' for Inactive)
REMARK    1  A    between atoms: C_2  and  O_3
REMARK    2  A    between atoms: C_2  and  C_15
REMARK    3  A    between atoms: O_3  and  C_4
REMARK    4  A    between atoms: C_4  and  C_5
REMARK    5  A    between atoms: C_8  and  C_10
REMARK                            x       y       z     vdW  Elec       q    Type
REMARK                         _______ _______ _______ _____ _____    ______ ____
USER                              x       y       z     vdW  Elec       q    Type
USER                           _______ _______ _______ _____ _____    ______ ____
ROOT
ATOM      1  O   UNL     1     159.287 167.198 177.464 -0.10 +0.12    -0.451 OA
ENDROOT
BRANCH   1   3
ATOM      2  O   UNL     1     159.408 169.351 178.222 -0.37 +0.09    -0.244 OA
ATOM      3  C   UNL     1     159.800 168.461 177.476 -0.23 -0.10    +0.346 C 
BRANCH   3   4
ATOM      4  C   UNL     1     160.842 168.614 176.472 -0.36 -0.01    +0.097 A 
ATOM      5  S   UNL     1     160.937 170.025 175.469 -0.61 +0.00    -0.086 S 
ATOM      6  C   UNL     1     162.320 169.450 174.736 -0.34 +0.00    -0.006 A 
ATOM      7  C   UNL     1     162.727 168.227 175.181 -0.32 +0.01    -0.036 A 
ATOM      8  C   UNL     1     163.959 167.778 174.492 -0.49 -0.01    +0.036 C 
ATOM      9  C   UNL     1     164.280 168.960 173.520 -0.45 -0.00    +0.010 C 
ATOM     10  C   UNL     1     163.181 170.051 173.697 -0.31 -0.01    +0.043 C 
ATOM     11  C   UNL     1     161.877 167.723 176.191 -0.37 -0.00    +0.026 A 
ENDBRANCH   3   4
ENDBRANCH   1   3
BRANCH   1  12
ATOM     12  C   UNL     1     158.058 167.029 176.749 -0.13 -0.15    +0.329 C 
BRANCH  12  13
ATOM     13  C   UNL     1     156.922 167.387 177.626 -0.25 -0.14    +0.255 A 
ATOM     14  O   UNL     1     156.051 166.383 177.941 -0.19 +0.20    -0.416 OA
ATOM     15  C   UNL     1     155.148 167.021 178.759 -0.24 -0.16    +0.255 A 
ATOM     16  N   UNL     1     155.465 168.293 178.930 -0.41 +0.08    -0.107 NA
ATOM     17  N   UNL     1     156.612 168.529 178.200 -0.43 +0.07    -0.108 NA
BRANCH  15  18
ATOM     18  C   UNL     1     154.015 166.374 179.355 -0.33 -0.05    +0.076 A 
ATOM     19  S   UNL     1     153.293 165.001 178.623 -0.42 +0.04    -0.092 S 
ATOM     20  C   UNL     1     152.119 164.874 179.858 -0.27 -0.02    +0.046 A 
ATOM     21  C   UNL     1     152.270 165.852 180.815 -0.31 -0.00    +0.008 A 
ATOM     22  C   UNL     1     153.366 166.718 180.526 -0.35 -0.02    +0.021 A 
ENDBRANCH  15  18
ENDBRANCH  12  13
ENDBRANCH   1  12
TORSDOF 5
TER
ENDMDL
