MODEL        1
USER    Run = 1
USER
USER    Estimated Free Energy of Binding    =  -5.88 kcal/mol  [=(1)+(2)+(3)-(4)]
USER
USER    (1) Final Intermolecular Energy     =  -6.78 kcal/mol
USER        vdW + Hbond + desolv Energy     =  -6.70 kcal/mol
USER        Electrostatic Energy            =  -0.07 kcal/mol
USER        Moving Ligand-Fixed Receptor    =  -6.78 kcal/mol
USER        Moving Ligand-Moving Receptor   =  +0.00 kcal/mol
USER    (2) Final Total Internal Energy     =  -1.05 kcal/mol
USER    (3) Torsional Free Energy           =  +0.89 kcal/mol
USER    (4) Unbound System's Energy         =  -1.05 kcal/mol
USER
USER
REMARK  Name = Z16225712
REMARK  4 active torsions:
REMARK  status: ('A' for Active; 'I' for Inactive)
REMARK    1  A    between atoms: C_1  and  C_2
REMARK    2  A    between atoms: C_2  and  S_3
REMARK    3  A    between atoms: C_2  and  C_16
REMARK    4  A    between atoms: S_3  and  C_4
REMARK                            x       y       z     vdW  Elec       q    Type
REMARK                         _______ _______ _______ _____ _____    ______ ____
USER                              x       y       z     vdW  Elec       q    Type
USER                           _______ _______ _______ _____ _____    ______ ____
ROOT
ATOM      1  C   UNL     1     164.705 171.947 169.380 -0.37 -0.00    +0.029 C 
ATOM      2  C   UNL     1     164.585 172.166 170.895 -0.20 -0.02    +0.137 C 
ENDROOT
BRANCH   2   3
ATOM      3  C   UNL     1     165.512 173.470 171.167 -0.12 +0.00    +0.233 C 
ATOM      4  N   UNL     1     165.215 174.383 172.193 -0.05 +0.05    -0.270 N 
ATOM      5  C   UNL     1     164.750 174.094 173.489 -0.10 -0.01    +0.040 A 
ATOM      6  C   UNL     1     164.637 175.252 174.265 -0.11 +0.00    -0.025 A 
ATOM      7  C   UNL     1     164.199 175.190 175.584 -0.13 +0.00    +0.005 A 
ATOM      8  C   UNL     1     163.880 173.940 176.107 -0.20 +0.00    +0.000 A 
ATOM      9  C   UNL     1     164.057 172.781 175.343 -0.20 -0.00    +0.002 A 
ATOM     10  C   UNL     1     165.141 176.451 173.528 -0.09 -0.01    +0.056 C 
ATOM     11  C   UNL     1     164.507 172.865 174.029 -0.14 -0.00    +0.024 A 
ATOM     12  C   UNL     1     165.570 175.846 172.176 -0.09 -0.03    +0.118 C 
ATOM     13  O   UNL     1     166.375 173.789 170.335 -0.56 -0.11    -0.274 OA
ENDBRANCH   2   3
BRANCH   2  14
ATOM     14  S   UNL     1     165.158 170.508 171.806 -0.39 +0.02    -0.073 S 
BRANCH  14  15
ATOM     15  C   UNL     1     163.597 169.616 172.261 -0.15 -0.05    +0.198 A 
ATOM     16  N   UNL     1     163.245 169.184 173.563 -0.21 +0.05    -0.253 N 
ATOM     17  C   UNL     1     163.482 167.826 173.479 -0.18 -0.06    +0.257 A 
ATOM     18  N   UNL     1     163.244 167.131 174.639 -0.27 +0.05    -0.213 NA
ATOM     19  C   UNL     1     162.538 167.964 175.356 -0.29 -0.01    +0.073 A 
ATOM     20  C   UNL     1     161.855 167.561 176.636 -0.42 -0.01    +0.084 C 
ATOM     21  C   UNL     1     160.859 168.584 177.062 -0.53 +0.00    -0.021 C 
ATOM     22  C   UNL     1     160.675 169.740 176.406 -0.52 +0.00    -0.002 C 
ATOM     23  C   UNL     1     161.452 170.126 175.205 -0.48 -0.00    +0.028 C 
ATOM     24  N   UNL     1     163.375 167.462 172.220 -0.30 +0.03    -0.108 NA
ATOM     25  C   UNL     1     162.397 169.317 174.695 -0.28 -0.01    +0.073 A 
ATOM     26  N   UNL     1     163.295 168.613 171.456 -0.32 +0.04    -0.120 NA
ENDBRANCH  14  15
ENDBRANCH   2  14
TORSDOF 3
TER
ENDMDL
