MODEL        1
USER    Run = 1
USER
USER    Estimated Free Energy of Binding    =  -4.90 kcal/mol  [=(1)+(2)+(3)-(4)]
USER
USER    (1) Final Intermolecular Energy     =  -6.39 kcal/mol
USER        vdW + Hbond + desolv Energy     =  -6.25 kcal/mol
USER        Electrostatic Energy            =  -0.14 kcal/mol
USER        Moving Ligand-Fixed Receptor    =  -6.39 kcal/mol
USER        Moving Ligand-Moving Receptor   =  +0.00 kcal/mol
USER    (2) Final Total Internal Energy     =  -1.86 kcal/mol
USER    (3) Torsional Free Energy           =  +1.49 kcal/mol
USER    (4) Unbound System's Energy         =  -1.86 kcal/mol
USER
USER
REMARK  Name = Z16254704
REMARK  5 active torsions:
REMARK  status: ('A' for Active; 'I' for Inactive)
REMARK    1  A    between atoms: C_2  and  C_4
REMARK    2  A    between atoms: C_4  and  S_5
REMARK    3  A    between atoms: S_5  and  C_6
REMARK    4  A    between atoms: C_9  and  C_10
REMARK    5  A    between atoms: N_19  and  C_20
REMARK                            x       y       z     vdW  Elec       q    Type
REMARK                         _______ _______ _______ _____ _____    ______ ____
USER                              x       y       z     vdW  Elec       q    Type
USER                           _______ _______ _______ _____ _____    ______ ____
ROOT
ATOM      1  C   UNL     1     165.070 171.457 172.457 -0.12 -0.05    +0.197 A 
ATOM      2  N   UNL     1     164.446 171.228 173.681 -0.10 +0.07    -0.270 N 
ATOM      3  C   UNL     1     163.759 170.016 173.484 -0.19 -0.04    +0.170 A 
ATOM      4  N   UNL     1     163.942 169.629 172.231 -0.30 +0.03    -0.128 NA
ATOM      5  N   UNL     1     164.760 170.517 171.597 -0.27 +0.03    -0.122 NA
ENDROOT
BRANCH   3   6
ATOM      6  C   UNL     1     162.970 169.225 174.451 -0.32 -0.00    +0.023 A 
ATOM      7  C   UNL     1     161.792 169.786 174.982 -0.34 -0.00    +0.061 A 
ATOM      8  C   UNL     1     161.086 169.073 175.935 -0.26 -0.01    +0.167 A 
ATOM      9  C   UNL     1     161.510 167.847 176.379 -0.28 -0.01    +0.166 A 
ATOM     10  O   UNL     1     160.707 167.336 177.349 -0.17 +0.08    -0.453 OA
ATOM     11  C   UNL     1     159.676 168.344 177.403 -0.11 -0.13    +0.466 C 
ATOM     12  C   UNL     1     162.626 167.239 175.856 -0.34 -0.01    +0.050 A 
ATOM     13  O   UNL     1     159.945 169.481 176.554 -0.18 +0.07    -0.453 OA
ATOM     14  C   UNL     1     163.332 167.918 174.854 -0.40 -0.00    +0.015 A 
ENDBRANCH   3   6
BRANCH   2  15
ATOM     15  C   UNL     1     164.448 172.077 174.833 -0.14 -0.01    +0.051 A 
ATOM     16  C   UNL     1     165.631 172.298 175.552 -0.11 -0.01    +0.026 A 
ATOM     17  C   UNL     1     165.628 173.127 176.677 -0.26 -0.00    +0.002 A 
ATOM     18  C   UNL     1     164.441 173.704 177.121 -0.28 +0.00    +0.000 A 
ATOM     19  C   UNL     1     163.260 173.480 176.421 -0.25 +0.00    +0.002 A 
ATOM     20  C   UNL     1     163.265 172.690 175.271 -0.20 +0.00    +0.026 A 
ENDBRANCH   2  15
BRANCH   1  21
ATOM     21  S   UNL     1     166.002 172.862 172.035 -0.26 +0.00    -0.076 S 
BRANCH  21  22
ATOM     22  C   UNL     1     165.037 173.541 170.661 -0.21 -0.01    +0.172 C 
BRANCH  22  26
ATOM     23  N   UNL     1     164.645 171.723 169.073 -0.09 +0.06    -0.329 N 
ATOM     24  H   UNL     1     164.001 171.309 169.732 +0.04 -0.04    +0.145 HD
ATOM     25  H   UNL     1     164.942 171.165 168.282 +0.04 -0.03    +0.145 HD
ATOM     26  C   UNL     1     165.421 172.802 169.391 -0.27 +0.03    +0.221 C 
ATOM     27  O   UNL     1     166.373 173.117 168.680 -0.87 -0.16    -0.275 OA
ENDBRANCH  22  26
ENDBRANCH  21  22
ENDBRANCH   1  21
TORSDOF 5
TER
ENDMDL
