MODEL        1
USER    Run = 1
USER
USER    Estimated Free Energy of Binding    =  -5.60 kcal/mol  [=(1)+(2)+(3)-(4)]
USER
USER    (1) Final Intermolecular Energy     =  -7.69 kcal/mol
USER        vdW + Hbond + desolv Energy     =  -7.57 kcal/mol
USER        Electrostatic Energy            =  -0.12 kcal/mol
USER        Moving Ligand-Fixed Receptor    =  -7.69 kcal/mol
USER        Moving Ligand-Moving Receptor   =  +0.00 kcal/mol
USER    (2) Final Total Internal Energy     =  -1.09 kcal/mol
USER    (3) Torsional Free Energy           =  +2.09 kcal/mol
USER    (4) Unbound System's Energy         =  -1.09 kcal/mol
USER
USER
REMARK  Name = Z16225138
REMARK  7 active torsions:
REMARK  status: ('A' for Active; 'I' for Inactive)
REMARK    1  A    between atoms: C_5  and  N_8
REMARK    2  A    between atoms: N_8  and  C_9
REMARK    3  A    between atoms: C_9  and  C_10
REMARK    4  A    between atoms: C_10  and  C_11
REMARK    5  A    between atoms: C_13  and  C_15
REMARK    6  A    between atoms: C_15  and  S_16
REMARK    7  A    between atoms: S_16  and  C_17
REMARK                            x       y       z     vdW  Elec       q    Type
REMARK                         _______ _______ _______ _____ _____    ______ ____
USER                              x       y       z     vdW  Elec       q    Type
USER                           _______ _______ _______ _____ _____    ______ ____
ROOT
ATOM      1  N   UNL     1     160.015 168.880 176.655 -0.29 +0.04    -0.270 N 
ATOM      2  C   UNL     1     160.215 169.896 175.665 -0.33 -0.01    +0.230 C 
ATOM      3  O   UNL     1     159.253 170.244 174.958 -0.38 +0.01    -0.274 OA
ENDROOT
BRANCH   1   8
ATOM      4  F   UNL     1     155.062 166.412 178.140 -0.09 +0.11    -0.205 F 
ATOM      5  C   UNL     1     156.189 166.987 177.736 -0.37 -0.07    +0.123 A 
ATOM      6  C   UNL     1     156.392 168.341 177.920 -0.34 -0.03    +0.040 A 
ATOM      7  C   UNL     1     157.598 168.927 177.500 -0.41 -0.01    +0.026 A 
ATOM      8  C   UNL     1     158.690 168.201 176.939 -0.40 -0.01    +0.036 A 
ATOM      9  C   UNL     1     158.404 166.838 176.723 -0.25 -0.01    +0.026 A 
ATOM     10  C   UNL     1     157.183 166.239 177.117 -0.41 -0.02    +0.040 A 
ENDBRANCH   1   8
BRANCH   2  11
ATOM     11  C   UNL     1     161.532 170.855 175.536 -0.33 +0.00    +0.173 C 
BRANCH  11  12
ATOM     12  S   UNL     1     162.242 171.989 176.960 -0.03 -0.01    -0.076 S 
BRANCH  12  13
ATOM     13  C   UNL     1     163.083 173.307 176.032 -0.09 +0.07    +0.198 A 
ATOM     14  N   UNL     1     163.862 173.400 174.821 -0.09 -0.01    -0.253 N 
ATOM     15  C   UNL     1     164.249 174.750 174.819 -0.02 +0.02    +0.257 A 
ATOM     16  N   UNL     1     165.011 175.150 173.755 -0.04 +0.03    -0.213 NA
ATOM     17  C   UNL     1     165.130 174.086 173.020 -0.07 -0.01    +0.073 A 
ATOM     18  C   UNL     1     165.868 174.108 171.700 -0.17 -0.01    +0.084 C 
ATOM     19  C   UNL     1     165.881 172.759 171.072 -0.18 -0.00    -0.021 C 
ATOM     20  C   UNL     1     165.270 171.691 171.617 -0.33 +0.00    -0.002 C 
ATOM     21  C   UNL     1     164.526 171.754 172.893 -0.21 -0.01    +0.028 C 
ATOM     22  N   UNL     1     163.759 175.392 175.840 -0.63 -0.07    -0.108 NA
ATOM     23  C   UNL     1     164.442 172.881 173.619 -0.06 -0.01    +0.073 A 
ATOM     24  N   UNL     1     163.036 174.513 176.583 -0.61 -0.12    -0.120 NA
ENDBRANCH  12  13
ENDBRANCH  11  12
ENDBRANCH   2  11
BRANCH   1  25
ATOM     25  C   UNL     1     161.138 168.420 177.494 -0.33 -0.02    +0.128 C 
BRANCH  25  26
ATOM     26  C   UNL     1     161.835 167.147 176.956 -0.38 -0.02    +0.138 C 
BRANCH  26  27
ATOM     27  C   UNL     1     162.646 167.496 175.719 -0.41 -0.01    +0.064 C 
ATOM     28  N   UNL     1     163.318 167.785 174.692 -0.30 +0.04    -0.197 NA
ENDBRANCH  26  27
ENDBRANCH  25  26
ENDBRANCH   1  25
TORSDOF 7
TER
ENDMDL
