MODEL        1
USER    Run = 1
USER
USER    Estimated Free Energy of Binding    =  -5.00 kcal/mol  [=(1)+(2)+(3)-(4)]
USER
USER    (1) Final Intermolecular Energy     =  -5.90 kcal/mol
USER        vdW + Hbond + desolv Energy     =  -5.72 kcal/mol
USER        Electrostatic Energy            =  -0.18 kcal/mol
USER        Moving Ligand-Fixed Receptor    =  -5.90 kcal/mol
USER        Moving Ligand-Moving Receptor   =  +0.00 kcal/mol
USER    (2) Final Total Internal Energy     =  -1.00 kcal/mol
USER    (3) Torsional Free Energy           =  +0.89 kcal/mol
USER    (4) Unbound System's Energy         =  -1.00 kcal/mol
USER
USER
REMARK  Name = Z16226106
REMARK  3 active torsions:
REMARK  status: ('A' for Active; 'I' for Inactive)
REMARK    1  A    between atoms: C_2  and  C_3
REMARK    2  A    between atoms: C_3  and  S_4
REMARK    3  A    between atoms: S_4  and  C_5
REMARK                            x       y       z     vdW  Elec       q    Type
REMARK                         _______ _______ _______ _____ _____    ______ ____
USER                              x       y       z     vdW  Elec       q    Type
USER                           _______ _______ _______ _____ _____    ______ ____
ROOT
ATOM      1  S   UNL     1     165.046 176.168 174.621 -0.15 +0.00    -0.076 S 
ENDROOT
BRANCH   1   2
ATOM      2  C   UNL     1     165.699 176.007 172.943 +0.01 -0.04    +0.198 A 
ATOM      3  N   UNL     1     165.583 175.121 171.801 -0.06 +0.04    -0.253 N 
ATOM      4  C   UNL     1     166.361 175.827 170.851 -0.04 -0.02    +0.257 A 
ATOM      5  N   UNL     1     166.450 175.253 169.625 -0.24 -0.02    -0.213 NA
ATOM      6  C   UNL     1     165.784 174.148 169.707 -0.27 +0.01    +0.073 A 
ATOM      7  C   UNL     1     165.709 173.208 168.532 -0.28 +0.01    +0.084 C 
ATOM      8  C   UNL     1     164.933 171.984 168.852 -0.37 +0.00    -0.021 C 
ATOM      9  C   UNL     1     164.382 171.793 170.061 -0.35 +0.00    -0.002 C 
ATOM     10  C   UNL     1     164.510 172.767 171.188 -0.22 -0.00    +0.028 C 
ATOM     11  N   UNL     1     166.902 176.894 171.343 -0.10 +0.01    -0.108 NA
ATOM     12  C   UNL     1     165.174 173.938 171.083 -0.18 -0.01    +0.073 A 
ATOM     13  N   UNL     1     166.505 177.002 172.630 -0.05 +0.02    -0.120 NA
ENDBRANCH   1   2
BRANCH   1  14
ATOM     14  C   UNL     1     165.039 174.162 175.299 -0.08 -0.01    +0.173 C 
BRANCH  14  16
ATOM     15  O   UNL     1     163.005 174.281 176.673 -0.63 -0.24    -0.274 OA
ATOM     16  C   UNL     1     163.629 173.613 175.833 -0.11 +0.06    +0.230 C 
ATOM     17  N   UNL     1     163.023 172.390 175.387 -0.13 -0.02    -0.270 N 
ATOM     18  C   UNL     1     163.431 171.278 174.574 -0.13 -0.01    +0.040 A 
ATOM     19  C   UNL     1     162.413 170.297 174.502 -0.28 +0.00    -0.025 A 
ATOM     20  C   UNL     1     162.553 169.085 173.812 -0.35 -0.00    +0.005 A 
ATOM     21  C   UNL     1     163.766 168.822 173.182 -0.39 -0.00    +0.000 A 
ATOM     22  C   UNL     1     164.796 169.770 173.259 -0.33 -0.00    +0.002 A 
ATOM     23  C   UNL     1     161.190 170.690 175.256 -0.45 +0.00    +0.056 C 
ATOM     24  C   UNL     1     164.625 171.010 173.948 -0.24 -0.01    +0.024 A 
ATOM     25  C   UNL     1     161.637 172.023 175.873 -0.30 +0.03    +0.118 C 
ENDBRANCH  14  16
ENDBRANCH   1  14
TORSDOF 3
TER
ENDMDL
