MODEL        1
USER    Run = 1
USER
USER    Estimated Free Energy of Binding    =  -5.96 kcal/mol  [=(1)+(2)+(3)-(4)]
USER
USER    (1) Final Intermolecular Energy     =  -7.75 kcal/mol
USER        vdW + Hbond + desolv Energy     =  -7.71 kcal/mol
USER        Electrostatic Energy            =  -0.03 kcal/mol
USER        Moving Ligand-Fixed Receptor    =  -7.75 kcal/mol
USER        Moving Ligand-Moving Receptor   =  +0.00 kcal/mol
USER    (2) Final Total Internal Energy     =  -0.94 kcal/mol
USER    (3) Torsional Free Energy           =  +1.79 kcal/mol
USER    (4) Unbound System's Energy         =  -0.94 kcal/mol
USER
USER
REMARK  Name = Z16226090
REMARK  7 active torsions:
REMARK  status: ('A' for Active; 'I' for Inactive)
REMARK    1  A    between atoms: C_1  and  C_2
REMARK    2  A    between atoms: C_2  and  O_3
REMARK    3  A    between atoms: O_3  and  C_4
REMARK    4  A    between atoms: C_9  and  N_10
REMARK    5  A    between atoms: C_11  and  C_13
REMARK    6  A    between atoms: C_13  and  S_14
REMARK    7  A    between atoms: S_14  and  C_15
REMARK                            x       y       z     vdW  Elec       q    Type
REMARK                         _______ _______ _______ _____ _____    ______ ____
USER                              x       y       z     vdW  Elec       q    Type
USER                           _______ _______ _______ _____ _____    ______ ____
ROOT
ATOM      1  C   UNL     1     158.994 168.029 176.788 -0.34 -0.05    +0.173 C 
ENDROOT
BRANCH   1   4
ATOM      2  N   UNL     1     160.598 169.516 175.624 -0.25 +0.01    -0.282 N 
ATOM      3  H   UNL     1     159.935 169.378 174.887 +0.11 +0.01    +0.155 HD
ATOM      4  C   UNL     1     160.363 168.773 176.772 -0.36 -0.04    +0.228 C 
ATOM      5  O   UNL     1     161.110 168.737 177.771 -0.34 +0.06    -0.275 OA
BRANCH   2   7
ATOM      6  C   UNL     1     162.580 170.195 174.353 -0.19 -0.02    +0.142 A 
ATOM      7  C   UNL     1     161.617 170.482 175.352 -0.34 -0.00    +0.076 A 
ATOM      8  C   UNL     1     161.741 171.700 176.028 -0.32 +0.00    +0.027 A 
ATOM      9  C   UNL     1     162.803 172.572 175.753 -0.26 +0.00    +0.002 A 
ATOM     10  C   UNL     1     163.771 172.248 174.800 -0.18 -0.00    +0.004 A 
ATOM     11  C   UNL     1     163.657 171.054 174.104 -0.16 -0.01    +0.047 A 
BRANCH   6  12
ATOM     12  O   UNL     1     162.587 169.069 173.572 -0.09 +0.07    -0.490 OA
BRANCH  12  14
ATOM     13  C   UNL     1     163.276 167.496 175.307 -0.40 -0.01    +0.048 C 
ATOM     14  C   UNL     1     163.569 168.112 173.959 -0.31 -0.05    +0.226 C 
ENDBRANCH  12  14
ENDBRANCH   6  12
ENDBRANCH   2   7
ENDBRANCH   1   4
BRANCH   1  15
ATOM     15  S   UNL     1     157.499 168.977 177.501 -0.59 +0.04    -0.076 S 
BRANCH  15  16
ATOM     16  C   UNL     1     156.322 167.694 177.645 -0.31 -0.12    +0.198 A 
ATOM     17  N   UNL     1     155.244 167.508 178.513 -0.31 +0.17    -0.253 N 
ATOM     18  C   UNL     1     155.122 166.118 178.532 -0.20 -0.13    +0.257 A 
ATOM     19  N   UNL     1     154.266 165.643 179.476 -0.22 +0.11    -0.213 NA
ATOM     20  C   UNL     1     153.749 166.722 179.997 -0.32 -0.05    +0.073 A 
ATOM     21  C   UNL     1     152.756 166.671 181.123 -0.33 -0.06    +0.084 C 
ATOM     22  C   UNL     1     152.069 167.986 181.262 -0.31 +0.02    -0.021 C 
ATOM     23  C   UNL     1     152.461 169.093 180.609 -0.35 +0.00    -0.002 C 
ATOM     24  C   UNL     1     153.623 169.120 179.695 -0.30 -0.03    +0.028 C 
ATOM     25  N   UNL     1     155.892 165.550 177.645 -0.32 +0.05    -0.108 NA
ATOM     26  C   UNL     1     154.262 167.985 179.372 -0.31 -0.07    +0.073 A 
ATOM     27  N   UNL     1     156.617 166.543 177.068 -0.40 +0.07    -0.120 NA
ENDBRANCH  15  16
ENDBRANCH   1  15
TORSDOF 6
TER
ENDMDL
