MODEL        1
USER    Run = 1
USER
USER    Estimated Free Energy of Binding    =  -5.82 kcal/mol  [=(1)+(2)+(3)-(4)]
USER
USER    (1) Final Intermolecular Energy     =  -7.32 kcal/mol
USER        vdW + Hbond + desolv Energy     =  -7.16 kcal/mol
USER        Electrostatic Energy            =  -0.16 kcal/mol
USER        Moving Ligand-Fixed Receptor    =  -7.32 kcal/mol
USER        Moving Ligand-Moving Receptor   =  +0.00 kcal/mol
USER    (2) Final Total Internal Energy     =  -2.88 kcal/mol
USER    (3) Torsional Free Energy           =  +1.49 kcal/mol
USER    (4) Unbound System's Energy         =  -2.88 kcal/mol
USER
USER
REMARK  Name = Z16225262
REMARK  5 active torsions:
REMARK  status: ('A' for Active; 'I' for Inactive)
REMARK    1  A    between atoms: C_2  and  C_4
REMARK    2  A    between atoms: C_5  and  N_6
REMARK    3  A    between atoms: C_7  and  C_9
REMARK    4  A    between atoms: C_9  and  S_10
REMARK    5  A    between atoms: S_10  and  C_11
REMARK                            x       y       z     vdW  Elec       q    Type
REMARK                         _______ _______ _______ _____ _____    ______ ____
USER                              x       y       z     vdW  Elec       q    Type
USER                           _______ _______ _______ _____ _____    ______ ____
ROOT
ATOM      1  N   UNL     1     163.298 169.747 174.413 -0.13 +0.06    -0.279 N 
ATOM      2  H   UNL     1     162.354 169.602 174.744 +0.11 -0.02    +0.155 HD
ATOM      3  C   UNL     1     164.084 168.561 174.316 -0.29 -0.06    +0.228 C 
ATOM      4  O   UNL     1     165.241 168.547 173.910 -0.31 +0.10    -0.275 OA
ENDROOT
BRANCH   1  12
ATOM      5  C   UNL     1     163.452 172.400 174.778 -0.10 -0.00    +0.068 A 
ATOM      6  C   UNL     1     164.192 173.484 174.127 -0.12 +0.00    -0.023 A 
ATOM      7  C   UNL     1     164.880 173.043 173.039 -0.14 +0.00    -0.004 A 
ATOM      8  C   UNL     1     165.625 174.108 172.309 -0.14 -0.01    +0.043 C 
ATOM      9  C   UNL     1     165.622 175.269 173.346 -0.10 -0.00    +0.010 C 
ATOM     10  S   UNL     1     164.756 171.400 172.772 -0.35 +0.02    -0.077 S 
ATOM     11  C   UNL     1     164.413 174.979 174.306 -0.16 -0.00    +0.037 C 
ATOM     12  C   UNL     1     163.732 171.125 174.162 -0.14 -0.02    +0.084 A 
BRANCH   5  16
ATOM     13  N   UNL     1     161.713 171.804 176.319 -0.16 -0.05    -0.325 N 
ATOM     14  H   UNL     1     161.633 170.886 175.922 +0.10 +0.00    +0.145 HD
ATOM     15  H   UNL     1     161.094 171.975 177.102 +0.12 +0.04    +0.145 HD
ATOM     16  C   UNL     1     162.611 172.731 175.939 -0.17 +0.06    +0.244 C 
ATOM     17  O   UNL     1     162.691 173.779 176.568 -0.46 -0.21    -0.270 OA
ENDBRANCH   5  16
ENDBRANCH   1  12
BRANCH   3  18
ATOM     18  C   UNL     1     163.398 167.120 174.650 -0.27 -0.04    +0.173 C 
BRANCH  18  19
ATOM     19  S   UNL     1     162.607 166.815 176.555 -0.35 +0.01    -0.076 S 
BRANCH  19  20
ATOM     20  C   UNL     1     160.994 167.647 176.660 -0.21 -0.02    +0.198 A 
ATOM     21  N   UNL     1     159.566 167.221 177.021 -0.20 +0.05    -0.253 N 
ATOM     22  C   UNL     1     159.292 168.701 177.263 -0.24 -0.08    +0.257 A 
ATOM     23  N   UNL     1     158.138 169.116 177.839 -0.26 +0.09    -0.213 NA
ATOM     24  C   UNL     1     157.378 168.089 177.811 -0.37 -0.04    +0.073 A 
ATOM     25  C   UNL     1     155.897 168.233 178.139 -0.40 -0.06    +0.084 C 
ATOM     26  C   UNL     1     155.185 166.941 178.114 -0.46 +0.01    -0.021 C 
ATOM     27  C   UNL     1     155.844 165.810 177.814 -0.44 +0.00    -0.002 C 
ATOM     28  C   UNL     1     157.306 165.780 177.454 -0.46 -0.01    +0.028 C 
ATOM     29  N   UNL     1     160.072 169.525 176.633 -0.40 +0.01    -0.108 NA
ATOM     30  C   UNL     1     158.129 166.870 177.393 -0.26 -0.03    +0.073 A 
ATOM     31  N   UNL     1     161.136 168.884 176.265 -0.37 +0.01    -0.120 NA
ENDBRANCH  19  20
ENDBRANCH  18  19
ENDBRANCH   3  18
TORSDOF 5
TER
ENDMDL
