MODEL        1
USER    Run = 1
USER
USER    Estimated Free Energy of Binding    =  -5.73 kcal/mol  [=(1)+(2)+(3)-(4)]
USER
USER    (1) Final Intermolecular Energy     =  -7.22 kcal/mol
USER        vdW + Hbond + desolv Energy     =  -7.23 kcal/mol
USER        Electrostatic Energy            =  +0.01 kcal/mol
USER        Moving Ligand-Fixed Receptor    =  -7.22 kcal/mol
USER        Moving Ligand-Moving Receptor   =  +0.00 kcal/mol
USER    (2) Final Total Internal Energy     =  -0.71 kcal/mol
USER    (3) Torsional Free Energy           =  +1.49 kcal/mol
USER    (4) Unbound System's Energy         =  -0.71 kcal/mol
USER
USER
REMARK  Name = Z16210487
REMARK  6 active torsions:
REMARK  status: ('A' for Active; 'I' for Inactive)
REMARK    1  A    between atoms: C_1  and  N_2
REMARK    2  A    between atoms: N_2  and  C_17
REMARK    3  A    between atoms: C_3  and  C_5
REMARK    4  A    between atoms: C_5  and  O_6
REMARK    5  A    between atoms: O_6  and  C_7
REMARK    6  A    between atoms: C_7  and  C_9
REMARK                            x       y       z     vdW  Elec       q    Type
REMARK                         _______ _______ _______ _____ _____    ______ ____
USER                              x       y       z     vdW  Elec       q    Type
USER                           _______ _______ _______ _____ _____    ______ ____
ROOT
ATOM      1  C   UNL     1     158.906 168.956 177.596 -0.15 -0.11    +0.328 C 
ENDROOT
BRANCH   1   4
ATOM      2  C   UNL     1     161.494 167.485 177.682 -0.35 -0.02    +0.138 C 
ATOM      3  N   UNL     1     161.127 168.375 176.580 -0.26 +0.03    -0.272 N 
ATOM      4  C   UNL     1     159.940 169.109 176.473 -0.30 -0.04    +0.257 C 
ATOM      5  O   UNL     1     159.725 169.897 175.546 -0.39 +0.02    -0.272 OA
BRANCH   3   6
ATOM      6  C   UNL     1     162.073 168.449 175.517 -0.28 -0.00    +0.036 A 
ATOM      7  C   UNL     1     162.270 169.657 174.840 -0.33 -0.00    +0.023 A 
ATOM      8  C   UNL     1     163.189 169.733 173.792 -0.33 -0.00    +0.002 A 
ATOM      9  C   UNL     1     163.940 168.613 173.439 -0.41 -0.00    +0.000 A 
ATOM     10  C   UNL     1     163.755 167.408 174.118 -0.45 -0.00    +0.002 A 
ATOM     11  C   UNL     1     162.809 167.319 175.141 -0.31 -0.00    +0.023 A 
ENDBRANCH   3   6
ENDBRANCH   1   4
BRANCH   1  12
ATOM     12  O   UNL     1     157.626 168.539 177.111 -0.20 +0.29    -0.451 OA
BRANCH  12  13
ATOM     13  C   UNL     1     157.393 167.196 177.116 -0.20 -0.19    +0.346 C 
ATOM     14  O   UNL     1     158.133 166.370 176.591 -0.30 +0.09    -0.244 OA
BRANCH  13  15
ATOM     15  C   UNL     1     156.179 166.929 177.865 -0.39 -0.05    +0.097 A 
ATOM     16  S   UNL     1     155.408 168.212 178.737 -0.51 +0.06    -0.086 S 
ATOM     17  C   UNL     1     154.222 167.167 179.285 -0.40 +0.00    -0.006 A 
ATOM     18  C   UNL     1     154.349 165.889 178.827 -0.34 +0.02    -0.036 A 
ATOM     19  C   UNL     1     153.262 165.016 179.330 -0.33 -0.02    +0.036 C 
ATOM     20  C   UNL     1     152.406 165.979 180.211 -0.35 -0.01    +0.010 C 
ATOM     21  C   UNL     1     153.068 167.391 180.180 -0.35 -0.04    +0.043 C 
ATOM     22  C   UNL     1     155.484 165.728 178.010 -0.32 -0.01    +0.026 A 
ENDBRANCH  13  15
ENDBRANCH  12  13
ENDBRANCH   1  12
TORSDOF 5
TER
ENDMDL
