MODEL        1
USER    Run = 1
USER
USER    Estimated Free Energy of Binding    =  -5.24 kcal/mol  [=(1)+(2)+(3)-(4)]
USER
USER    (1) Final Intermolecular Energy     =  -7.33 kcal/mol
USER        vdW + Hbond + desolv Energy     =  -7.31 kcal/mol
USER        Electrostatic Energy            =  -0.02 kcal/mol
USER        Moving Ligand-Fixed Receptor    =  -7.33 kcal/mol
USER        Moving Ligand-Moving Receptor   =  +0.00 kcal/mol
USER    (2) Final Total Internal Energy     =  -1.45 kcal/mol
USER    (3) Torsional Free Energy           =  +2.09 kcal/mol
USER    (4) Unbound System's Energy         =  -1.45 kcal/mol
USER
USER
REMARK  Name = Z16226222
REMARK  8 active torsions:
REMARK  status: ('A' for Active; 'I' for Inactive)
REMARK    1  A    between atoms: C_1  and  C_2
REMARK    2  A    between atoms: C_2  and  O_3
REMARK    3  A    between atoms: O_3  and  C_4
REMARK    4  A    between atoms: C_4  and  C_6
REMARK    5  A    between atoms: C_11  and  N_12
REMARK    6  A    between atoms: C_13  and  C_15
REMARK    7  A    between atoms: C_15  and  S_16
REMARK    8  A    between atoms: S_16  and  C_17
REMARK                            x       y       z     vdW  Elec       q    Type
REMARK                         _______ _______ _______ _____ _____    ______ ____
USER                              x       y       z     vdW  Elec       q    Type
USER                           _______ _______ _______ _____ _____    ______ ____
ROOT
ATOM      1  N   UNL     1     162.934 169.401 174.082 -0.17 +0.05    -0.284 N 
ATOM      2  H   UNL     1     162.492 170.278 173.812 +0.10 -0.02    +0.155 HD
ATOM      3  C   UNL     1     164.161 169.142 173.473 -0.27 -0.06    +0.228 C 
ATOM      4  O   UNL     1     164.780 168.078 173.715 -0.35 +0.08    -0.275 OA
ENDROOT
BRANCH   1   6
ATOM      5  C   UNL     1     161.030 169.072 175.778 -0.28 -0.00    +0.080 A 
ATOM      6  C   UNL     1     162.254 168.653 175.174 -0.30 -0.00    +0.047 A 
ATOM      7  C   UNL     1     162.815 167.523 175.801 -0.34 -0.00    +0.024 A 
ATOM      8  C   UNL     1     162.228 166.888 176.940 -0.39 -0.00    +0.002 A 
ATOM      9  C   UNL     1     161.014 167.304 177.467 -0.44 -0.00    +0.001 A 
ATOM     10  C   UNL     1     160.403 168.380 176.862 -0.47 -0.00    +0.017 A 
BRANCH   5  11
ATOM     11  C   UNL     1     160.372 170.334 175.408 -0.24 -0.00    +0.341 C 
ATOM     12  O   UNL     1     159.185 170.470 175.206 -0.45 +0.01    -0.245 OA
BRANCH  11  13
ATOM     13  O   UNL     1     161.365 171.232 175.139 -0.16 -0.02    -0.461 OA
BRANCH  13  15
ATOM     14  C   UNL     1     163.013 172.793 175.833 -0.28 +0.01    +0.048 C 
ATOM     15  C   UNL     1     161.872 171.904 176.284 -0.18 +0.04    +0.229 C 
ENDBRANCH  13  15
ENDBRANCH  11  13
ENDBRANCH   5  11
ENDBRANCH   1   6
BRANCH   3  16
ATOM     16  C   UNL     1     164.819 170.148 172.379 -0.24 -0.05    +0.173 C 
BRANCH  16  17
ATOM     17  S   UNL     1     164.849 172.197 172.723 -0.28 +0.02    -0.076 S 
BRANCH  17  18
ATOM     18  C   UNL     1     165.660 173.096 171.332 -0.07 +0.01    +0.198 A 
ATOM     19  N   UNL     1     166.398 174.438 171.197 -0.09 -0.01    -0.253 N 
ATOM     20  C   UNL     1     166.170 174.299 169.683 -0.10 +0.06    +0.257 A 
ATOM     21  N   UNL     1     166.461 175.323 168.841 -0.12 -0.01    -0.213 NA
ATOM     22  C   UNL     1     167.128 176.158 169.549 -0.21 +0.00    +0.073 A 
ATOM     23  C   UNL     1     167.848 177.318 168.871 -0.19 -0.00    +0.084 C 
ATOM     24  C   UNL     1     168.530 178.205 169.836 -0.15 +0.00    -0.021 C 
ATOM     25  C   UNL     1     168.501 177.923 171.147 -0.09 +0.00    -0.002 C 
ATOM     26  C   UNL     1     167.807 176.710 171.713 -0.10 -0.00    +0.028 C 
ATOM     27  N   UNL     1     165.961 173.092 169.249 -0.88 -0.05    -0.108 NA
ATOM     28  C   UNL     1     167.122 175.772 170.987 -0.13 -0.00    +0.073 A 
ATOM     29  N   UNL     1     165.683 172.334 170.275 -0.43 -0.04    -0.120 NA
ENDBRANCH  17  18
ENDBRANCH  16  17
ENDBRANCH   3  16
TORSDOF 7
TER
ENDMDL
