MODEL        1
USER    Run = 1
USER
USER    Estimated Free Energy of Binding    =  -6.20 kcal/mol  [=(1)+(2)+(3)-(4)]
USER
USER    (1) Final Intermolecular Energy     =  -7.09 kcal/mol
USER        vdW + Hbond + desolv Energy     =  -7.05 kcal/mol
USER        Electrostatic Energy            =  -0.04 kcal/mol
USER        Moving Ligand-Fixed Receptor    =  -7.09 kcal/mol
USER        Moving Ligand-Moving Receptor   =  +0.00 kcal/mol
USER    (2) Final Total Internal Energy     =  -0.25 kcal/mol
USER    (3) Torsional Free Energy           =  +0.89 kcal/mol
USER    (4) Unbound System's Energy         =  -0.25 kcal/mol
USER
USER
REMARK  Name = Z16226353
REMARK  3 active torsions:
REMARK  status: ('A' for Active; 'I' for Inactive)
REMARK    1  A    between atoms: C_2  and  C_3
REMARK    2  A    between atoms: C_3  and  S_4
REMARK    3  A    between atoms: S_4  and  C_5
REMARK                            x       y       z     vdW  Elec       q    Type
REMARK                         _______ _______ _______ _____ _____    ______ ____
USER                              x       y       z     vdW  Elec       q    Type
USER                           _______ _______ _______ _____ _____    ______ ____
ROOT
ATOM      1  C   UNL     1     156.906 167.409 177.839 -0.29 -0.10    +0.198 A 
ATOM      2  N   UNL     1     155.588 167.094 178.565 -0.30 +0.14    -0.253 N 
ATOM      3  C   UNL     1     155.651 165.725 177.858 -0.15 -0.12    +0.257 A 
ATOM      4  N   UNL     1     154.583 164.887 177.904 -0.15 +0.09    -0.213 NA
ATOM      5  C   UNL     1     153.811 165.365 178.798 -0.28 -0.04    +0.073 A 
ATOM      6  C   UNL     1     152.611 164.546 179.279 -0.28 -0.03    +0.084 C 
ATOM      7  C   UNL     1     151.794 165.271 180.277 -0.37 +0.01    -0.021 C 
ATOM      8  C   UNL     1     152.142 166.500 180.669 -0.34 +0.00    -0.002 C 
ATOM      9  C   UNL     1     153.376 167.215 180.164 -0.38 -0.02    +0.028 C 
ATOM     10  N   UNL     1     156.824 165.341 177.474 -0.33 +0.05    -0.108 NA
ATOM     11  C   UNL     1     154.270 166.708 179.258 -0.35 -0.05    +0.073 A 
ATOM     12  N   UNL     1     157.634 166.371 177.527 -0.35 +0.05    -0.120 NA
ENDROOT
BRANCH   1  13
ATOM     13  S   UNL     1     157.762 168.978 177.394 -0.59 +0.04    -0.076 S 
BRANCH  13  14
ATOM     14  C   UNL     1     159.827 168.637 177.156 -0.43 -0.04    +0.173 C 
BRANCH  14  16
ATOM     15  O   UNL     1     159.866 170.210 175.241 -0.42 +0.00    -0.275 OA
ATOM     16  C   UNL     1     160.513 169.362 175.879 -0.30 -0.01    +0.226 C 
ATOM     17  N   UNL     1     161.893 169.159 175.550 -0.16 +0.02    -0.301 N 
ATOM     18  C   UNL     1     162.486 167.830 175.603 -0.35 -0.01    +0.107 C 
ATOM     19  C   UNL     1     163.406 167.674 174.374 -0.47 -0.00    +0.020 C 
ATOM     20  C   UNL     1     163.124 168.876 173.492 -0.43 -0.00    +0.020 C 
ATOM     21  C   UNL     1     162.591 169.922 174.476 -0.31 -0.01    +0.107 C 
ENDBRANCH  14  16
ENDBRANCH  13  14
ENDBRANCH   1  13
TORSDOF 3
TER
ENDMDL
