MODEL        1
USER    Run = 1
USER
USER    Estimated Free Energy of Binding    =  -5.58 kcal/mol  [=(1)+(2)+(3)-(4)]
USER
USER    (1) Final Intermolecular Energy     =  -7.07 kcal/mol
USER        vdW + Hbond + desolv Energy     =  -7.17 kcal/mol
USER        Electrostatic Energy            =  +0.10 kcal/mol
USER        Moving Ligand-Fixed Receptor    =  -7.07 kcal/mol
USER        Moving Ligand-Moving Receptor   =  +0.00 kcal/mol
USER    (2) Final Total Internal Energy     =  -2.37 kcal/mol
USER    (3) Torsional Free Energy           =  +1.49 kcal/mol
USER    (4) Unbound System's Energy         =  -2.37 kcal/mol
USER
USER
REMARK  Name = Z16202607
REMARK  5 active torsions:
REMARK  status: ('A' for Active; 'I' for Inactive)
REMARK    1  A    between atoms: C_2  and  C_3
REMARK    2  A    between atoms: C_3  and  N_4
REMARK    3  A    between atoms: C_8  and  C_9
REMARK    4  A    between atoms: C_9  and  C_10
REMARK    5  A    between atoms: N_21  and  C_22
REMARK                            x       y       z     vdW  Elec       q    Type
REMARK                         _______ _______ _______ _____ _____    ______ ____
USER                              x       y       z     vdW  Elec       q    Type
USER                           _______ _______ _______ _____ _____    ______ ____
ROOT
ATOM      1  N   UNL     1     165.223 173.247 171.170 -0.13 +0.01    -0.216 N 
ATOM      2  C   UNL     1     165.311 172.121 171.966 -0.12 -0.03    +0.244 C 
ATOM      3  O   UNL     1     165.620 172.103 173.149 -0.14 +0.08    -0.273 OA
ATOM      4  C   UNL     1     164.970 170.863 171.099 -0.09 -0.03    +0.165 C 
ATOM      5  N   UNL     1     164.746 171.526 169.830 -0.05 +0.05    -0.287 N 
ATOM      6  H   UNL     1     164.747 171.061 168.933 +0.03 -0.05    +0.151 HD
ATOM      7  C   UNL     1     164.995 172.883 169.880 -0.18 -0.00    +0.310 C 
ATOM      8  O   UNL     1     164.985 173.609 168.900 -0.33 +0.06    -0.252 OA
ENDROOT
BRANCH   1   9
ATOM      9  C   UNL     1     165.486 174.633 171.588 -0.10 -0.03    +0.213 C 
BRANCH   9  11
ATOM     10  O   UNL     1     165.373 176.078 173.554 -0.05 +0.06    -0.274 OA
ATOM     11  C   UNL     1     165.050 175.001 173.031 -0.04 -0.05    +0.231 C 
ATOM     12  N   UNL     1     164.143 174.154 173.625 -0.04 +0.04    -0.309 N 
ATOM     13  H   UNL     1     163.854 173.337 173.102 +0.08 -0.02    +0.149 HD
BRANCH  12  14
ATOM     14  C   UNL     1     163.656 174.264 175.021 -0.14 +0.03    +0.095 C 
ATOM     15  C   UNL     1     164.810 174.526 175.975 -0.11 +0.02    +0.188 C 
ATOM     16  S   UNL     1     164.467 173.808 177.548 -0.41 -0.01    -0.029 S 
ATOM     17  O   UNL     1     164.136 174.842 178.503 -0.75 -0.10    -0.174 OA
ATOM     18  O   UNL     1     165.470 172.796 177.826 -0.36 +0.03    -0.174 OA
ATOM     19  C   UNL     1     162.983 172.995 177.020 -0.14 +0.04    +0.168 C 
ATOM     20  C   UNL     1     163.076 172.929 175.497 -0.26 +0.01    +0.046 C 
ENDBRANCH  12  14
ENDBRANCH   9  11
ENDBRANCH   1   9
BRANCH   4  21
ATOM     21  C   UNL     1     163.804 169.871 171.517 -0.23 -0.02    +0.069 C 
BRANCH  21  22
ATOM     22  C   UNL     1     163.583 169.566 172.984 -0.41 +0.00    -0.018 C 
ATOM     23  C   UNL     1     162.465 169.319 173.896 -0.42 -0.00    +0.001 C 
ATOM     24  C   UNL     1     162.997 168.298 174.830 -0.40 -0.01    +0.052 C 
ATOM     25  C   UNL     1     162.226 167.661 175.934 -0.39 -0.01    +0.083 C 
ATOM     26  C   UNL     1     161.336 168.720 176.505 -0.44 +0.00    -0.021 C 
ATOM     27  C   UNL     1     160.998 169.818 175.797 -0.52 +0.00    -0.003 C 
ATOM     28  N   UNL     1     164.273 168.153 174.668 -0.27 +0.08    -0.259 NA
ATOM     29  C   UNL     1     161.496 170.085 174.439 -0.42 -0.00    +0.010 C 
ATOM     30  C   UNL     1     164.595 169.043 173.680 -0.35 -0.04    +0.115 C 
ENDBRANCH  21  22
ENDBRANCH   4  21
TORSDOF 5
TER
ENDMDL
