MODEL        1
USER    Run = 1
USER
USER    Estimated Free Energy of Binding    =  -6.62 kcal/mol  [=(1)+(2)+(3)-(4)]
USER
USER    (1) Final Intermolecular Energy     =  -8.70 kcal/mol
USER        vdW + Hbond + desolv Energy     =  -8.69 kcal/mol
USER        Electrostatic Energy            =  -0.02 kcal/mol
USER        Moving Ligand-Fixed Receptor    =  -8.70 kcal/mol
USER        Moving Ligand-Moving Receptor   =  +0.00 kcal/mol
USER    (2) Final Total Internal Energy     =  -0.88 kcal/mol
USER    (3) Torsional Free Energy           =  +2.09 kcal/mol
USER    (4) Unbound System's Energy         =  -0.88 kcal/mol
USER
USER
REMARK  Name = Z16224857
REMARK  8 active torsions:
REMARK  status: ('A' for Active; 'I' for Inactive)
REMARK    1  A    between atoms: C_1  and  C_2
REMARK    2  A    between atoms: C_2  and  O_3
REMARK    3  A    between atoms: O_3  and  C_4
REMARK    4  A    between atoms: C_4  and  C_6
REMARK    5  A    between atoms: C_7  and  N_8
REMARK    6  A    between atoms: C_9  and  C_11
REMARK    7  A    between atoms: C_11  and  S_12
REMARK    8  A    between atoms: S_12  and  C_13
REMARK                            x       y       z     vdW  Elec       q    Type
REMARK                         _______ _______ _______ _____ _____    ______ ____
USER                              x       y       z     vdW  Elec       q    Type
USER                           _______ _______ _______ _____ _____    ______ ____
ROOT
ATOM      1  N   UNL     1     154.930 167.477 178.319 -0.25 +0.19    -0.279 N 
ATOM      2  H   UNL     1     154.758 168.201 177.626 +0.09 -0.11    +0.155 HD
ATOM      3  C   UNL     1     156.202 166.871 178.236 -0.33 -0.11    +0.228 C 
ATOM      4  O   UNL     1     156.632 166.028 179.071 -0.19 +0.11    -0.275 OA
ENDROOT
BRANCH   1  12
ATOM      5  C   UNL     1     153.013 168.118 180.049 -0.23 -0.09    +0.091 A 
ATOM      6  C   UNL     1     152.043 167.351 180.834 -0.24 +0.02    -0.021 A 
ATOM      7  C   UNL     1     152.239 166.011 180.707 -0.30 +0.00    -0.004 A 
ATOM      8  C   UNL     1     151.334 165.171 181.540 -0.36 -0.01    +0.043 C 
ATOM      9  C   UNL     1     150.246 166.197 181.963 -0.40 -0.00    +0.010 C 
ATOM     10  S   UNL     1     153.474 165.596 179.671 -0.44 +0.04    -0.077 S 
ATOM     11  C   UNL     1     150.908 167.612 181.806 -0.25 -0.03    +0.037 C 
ATOM     12  C   UNL     1     153.867 167.249 179.284 -0.28 -0.07    +0.086 A 
BRANCH   5  13
ATOM     13  C   UNL     1     152.986 169.587 180.099 -0.15 -0.36    +0.342 C 
ATOM     14  O   UNL     1     153.988 170.278 179.921 -0.37 +0.28    -0.245 OA
BRANCH  13  15
ATOM     15  O   UNL     1     151.771 170.101 180.435 -0.08 +0.43    -0.461 OA
BRANCH  15  17
ATOM     16  C   UNL     1     149.960 169.522 179.016 -0.18 -0.04    +0.048 C 
ATOM     17  C   UNL     1     151.003 170.580 179.324 -0.17 -0.17    +0.229 C 
ENDBRANCH  15  17
ENDBRANCH  13  15
ENDBRANCH   5  13
ENDBRANCH   1  12
BRANCH   3  18
ATOM     18  C   UNL     1     157.231 167.319 177.077 -0.32 -0.10    +0.173 C 
BRANCH  18  19
ATOM     19  S   UNL     1     158.559 168.816 177.568 -0.56 +0.03    -0.076 S 
BRANCH  19  20
ATOM     20  C   UNL     1     160.236 168.323 177.081 -0.32 -0.04    +0.198 A 
ATOM     21  N   UNL     1     161.226 168.814 176.044 -0.24 +0.02    -0.253 N 
ATOM     22  C   UNL     1     161.955 167.478 176.271 -0.19 -0.03    +0.257 A 
ATOM     23  N   UNL     1     162.987 167.117 175.464 -0.27 +0.04    -0.213 NA
ATOM     24  C   UNL     1     163.294 168.193 174.829 -0.32 -0.01    +0.073 A 
ATOM     25  C   UNL     1     164.615 168.288 174.076 -0.43 -0.03    +0.084 C 
ATOM     26  C   UNL     1     164.740 169.546 173.307 -0.38 +0.01    -0.021 C 
ATOM     27  C   UNL     1     163.775 170.475 173.370 -0.32 +0.00    -0.002 C 
ATOM     28  C   UNL     1     162.548 170.325 174.232 -0.28 -0.00    +0.028 C 
ATOM     29  N   UNL     1     161.802 166.988 177.467 -0.43 +0.02    -0.108 NA
ATOM     30  C   UNL     1     162.258 169.243 175.017 -0.27 -0.01    +0.073 A 
ATOM     31  N   UNL     1     160.786 167.600 178.020 -0.22 +0.03    -0.120 NA
ENDBRANCH  19  20
ENDBRANCH  18  19
ENDBRANCH   3  18
TORSDOF 7
TER
ENDMDL
