MODEL        1
USER    Run = 1
USER
USER    Estimated Free Energy of Binding    =  -6.08 kcal/mol  [=(1)+(2)+(3)-(4)]
USER
USER    (1) Final Intermolecular Energy     =  -8.47 kcal/mol
USER        vdW + Hbond + desolv Energy     =  -8.37 kcal/mol
USER        Electrostatic Energy            =  -0.10 kcal/mol
USER        Moving Ligand-Fixed Receptor    =  -8.47 kcal/mol
USER        Moving Ligand-Moving Receptor   =  +0.00 kcal/mol
USER    (2) Final Total Internal Energy     =  -0.92 kcal/mol
USER    (3) Torsional Free Energy           =  +2.39 kcal/mol
USER    (4) Unbound System's Energy         =  -0.92 kcal/mol
USER
USER
REMARK  Name = Z16212519
REMARK  10 active torsions:
REMARK  status: ('A' for Active; 'I' for Inactive)
REMARK    1  A    between atoms: C_1  and  C_2
REMARK    2  A    between atoms: C_2  and  N_3
REMARK    3  A    between atoms: C_4  and  S_5
REMARK    4  A    between atoms: S_5  and  C_6
REMARK    5  A    between atoms: C_6  and  C_7
REMARK    6  A    between atoms: N_9  and  C_10
REMARK    7  A    between atoms: C_10  and  C_11
REMARK    8  A    between atoms: C_14  and  O_15
REMARK    9  A    between atoms: O_15  and  C_16
REMARK   10  A    between atoms: C_21  and  C_22
REMARK                            x       y       z     vdW  Elec       q    Type
REMARK                         _______ _______ _______ _____ _____    ______ ____
USER                              x       y       z     vdW  Elec       q    Type
USER                           _______ _______ _______ _____ _____    ______ ____
ROOT
ATOM      1  S   UNL     1     159.085 167.606 176.728 -0.50 +0.02    -0.077 S 
ENDROOT
BRANCH   1   6
ATOM      2  N   UNL     1     156.663 166.676 177.774 -0.23 +0.15    -0.302 N 
ATOM      3  C   UNL     1     155.572 167.270 178.426 -0.33 -0.10    +0.165 A 
ATOM      4  N   UNL     1     155.796 168.574 178.470 -0.32 +0.09    -0.128 NA
ATOM      5  N   UNL     1     157.010 168.843 177.908 -0.41 +0.07    -0.122 NA
ATOM      6  C   UNL     1     157.531 167.710 177.499 -0.27 -0.10    +0.192 A 
BRANCH   3   7
ATOM      7  C   UNL     1     154.337 166.652 178.971 -0.39 -0.01    +0.019 A 
ATOM      8  C   UNL     1     153.824 165.403 178.581 -0.30 -0.01    +0.013 A 
ATOM      9  C   UNL     1     152.678 164.857 179.182 -0.31 -0.01    +0.021 A 
ATOM     10  C   UNL     1     152.033 165.541 180.200 -0.28 -0.02    +0.041 A 
ATOM     11 CL   UNL     1     150.661 164.848 180.970 -0.55 +0.01    -0.084 Cl
ATOM     12  C   UNL     1     152.515 166.778 180.615 -0.28 -0.01    +0.021 A 
ATOM     13  C   UNL     1     153.652 167.325 180.002 -0.34 -0.01    +0.013 A 
ENDBRANCH   3   7
BRANCH   2  15
ATOM     14  C   UNL     1     157.012 164.688 176.128 -0.39 -0.02    +0.027 C 
ATOM     15  C   UNL     1     156.743 165.257 177.508 -0.33 -0.05    +0.122 C 
ENDBRANCH   2  15
ENDBRANCH   1   6
BRANCH   1  16
ATOM     16  C   UNL     1     159.708 169.308 176.947 -0.31 -0.04    +0.173 C 
BRANCH  16  17
ATOM     17  C   UNL     1     160.521 169.772 175.735 -0.34 -0.01    +0.224 C 
ATOM     18  N   UNL     1     161.833 169.350 175.711 -0.14 +0.02    -0.310 N 
ATOM     19  H   UNL     1     162.251 169.107 176.594 +0.12 -0.01    +0.149 HD
ATOM     20  O   UNL     1     160.011 170.414 174.814 -0.42 -0.01    -0.275 OA
BRANCH  18  21
ATOM     21  C   UNL     1     162.716 169.661 174.602 -0.25 -0.02    +0.139 C 
BRANCH  21  22
ATOM     22  C   UNL     1     162.964 168.476 173.688 -0.33 +0.01    -0.030 A 
ATOM     23  C   UNL     1     163.497 167.284 174.204 -0.39 -0.00    +0.009 A 
ATOM     24  C   UNL     1     163.754 166.176 173.376 -0.35 -0.01    +0.046 A 
ATOM     25  C   UNL     1     163.489 166.250 172.013 +0.12 -0.04    +0.120 A 
ATOM     26  C   UNL     1     162.977 167.438 171.485 -0.12 -0.02    +0.046 A 
ATOM     27  C   UNL     1     162.738 168.547 172.305 -0.35 -0.00    +0.009 A 
BRANCH  25  28
ATOM     28  O   UNL     1     163.624 165.230 171.114 -0.16 +0.19    -0.495 OA
ATOM     29  C   UNL     1     162.466 164.451 170.844 -0.21 -0.16    +0.277 C 
ENDBRANCH  25  28
ENDBRANCH  21  22
ENDBRANCH  18  21
ENDBRANCH  16  17
ENDBRANCH   1  16
TORSDOF 8
TER
ENDMDL
