MODEL        1
USER    Run = 1
USER
USER    Estimated Free Energy of Binding    =  -6.16 kcal/mol  [=(1)+(2)+(3)-(4)]
USER
USER    (1) Final Intermolecular Energy     =  -7.65 kcal/mol
USER        vdW + Hbond + desolv Energy     =  -7.56 kcal/mol
USER        Electrostatic Energy            =  -0.09 kcal/mol
USER        Moving Ligand-Fixed Receptor    =  -7.65 kcal/mol
USER        Moving Ligand-Moving Receptor   =  +0.00 kcal/mol
USER    (2) Final Total Internal Energy     =  -0.24 kcal/mol
USER    (3) Torsional Free Energy           =  +1.49 kcal/mol
USER    (4) Unbound System's Energy         =  -0.24 kcal/mol
USER
USER
REMARK  Name = Z16224929
REMARK  5 active torsions:
REMARK  status: ('A' for Active; 'I' for Inactive)
REMARK    1  A    between atoms: C_7  and  O_8
REMARK    2  A    between atoms: O_8  and  C_9
REMARK    3  A    between atoms: C_9  and  C_10
REMARK    4  A    between atoms: C_10  and  S_11
REMARK    5  A    between atoms: S_11  and  C_12
REMARK                            x       y       z     vdW  Elec       q    Type
REMARK                         _______ _______ _______ _____ _____    ______ ____
USER                              x       y       z     vdW  Elec       q    Type
USER                           _______ _______ _______ _____ _____    ______ ____
ROOT
ATOM      1  C   UNL     1     156.565 167.599 177.821 -0.32 -0.11    +0.198 A 
ATOM      2  N   UNL     1     155.373 167.427 178.549 -0.31 +0.16    -0.253 N 
ATOM      3  C   UNL     1     155.231 166.029 178.508 -0.19 -0.13    +0.257 A 
ATOM      4  N   UNL     1     154.142 165.533 179.138 -0.23 +0.11    -0.213 NA
ATOM      5  C   UNL     1     153.511 166.606 179.578 -0.30 -0.05    +0.073 A 
ATOM      6  C   UNL     1     152.181 166.495 180.245 -0.28 -0.05    +0.084 C 
ATOM      7  C   UNL     1     151.684 167.826 180.684 -0.26 +0.02    -0.021 C 
ATOM      8  C   UNL     1     152.363 168.963 180.453 -0.35 +0.00    -0.002 C 
ATOM      9  C   UNL     1     153.651 169.010 179.725 -0.30 -0.03    +0.028 C 
ATOM     10  N   UNL     1     156.146 165.465 177.780 -0.32 +0.05    -0.108 NA
ATOM     11  C   UNL     1     154.251 167.891 179.275 -0.31 -0.07    +0.073 A 
ATOM     12  N   UNL     1     156.955 166.443 177.336 -0.38 +0.06    -0.120 NA
ENDROOT
BRANCH   1  13
ATOM     13  S   UNL     1     157.606 168.961 177.450 -0.59 +0.05    -0.082 S 
BRANCH  13  14
ATOM     14  C   UNL     1     159.249 167.999 176.817 -0.39 -0.03    +0.118 C 
BRANCH  14  15
ATOM     15  C   UNL     1     160.592 168.403 177.512 -0.33 -0.06    +0.240 C 
BRANCH  15  16
ATOM     16  O   UNL     1     161.822 167.835 176.968 -0.15 +0.04    -0.490 OA
BRANCH  16  19
ATOM     17 CL   UNL     1     161.091 170.756 175.559 -0.63 -0.00    -0.080 Cl
ATOM     18  C   UNL     1     162.009 169.408 174.986 -0.29 -0.01    +0.083 A 
ATOM     19  C   UNL     1     162.264 168.216 175.700 -0.22 -0.01    +0.139 A 
ATOM     20  C   UNL     1     163.093 167.267 175.043 -0.31 -0.01    +0.047 A 
ATOM     21  C   UNL     1     163.621 167.482 173.747 -0.42 -0.00    +0.004 A 
ATOM     22  C   UNL     1     163.329 168.659 173.064 -0.39 -0.00    +0.002 A 
ATOM     23  C   UNL     1     162.535 169.608 173.686 -0.30 -0.00    +0.023 A 
ENDBRANCH  16  19
ENDBRANCH  15  16
ENDBRANCH  14  15
ENDBRANCH  13  14
ENDBRANCH   1  13
TORSDOF 5
TER
ENDMDL
