MODEL        1
USER    Run = 1
USER
USER    Estimated Free Energy of Binding    =  -6.27 kcal/mol  [=(1)+(2)+(3)-(4)]
USER
USER    (1) Final Intermolecular Energy     =  -7.77 kcal/mol
USER        vdW + Hbond + desolv Energy     =  -7.71 kcal/mol
USER        Electrostatic Energy            =  -0.06 kcal/mol
USER        Moving Ligand-Fixed Receptor    =  -7.77 kcal/mol
USER        Moving Ligand-Moving Receptor   =  +0.00 kcal/mol
USER    (2) Final Total Internal Energy     =  -0.82 kcal/mol
USER    (3) Torsional Free Energy           =  +1.49 kcal/mol
USER    (4) Unbound System's Energy         =  -0.82 kcal/mol
USER
USER
REMARK  Name = Z16262480
REMARK  8 active torsions:
REMARK  status: ('A' for Active; 'I' for Inactive)
REMARK    1  A    between atoms: C_1  and  C_2
REMARK    2  A    between atoms: C_2  and  N_3
REMARK    3  A    between atoms: C_4  and  S_5
REMARK    4  A    between atoms: S_5  and  C_6
REMARK    5  A    between atoms: C_6  and  C_7
REMARK    6  A    between atoms: C_10  and  C_11
REMARK    7  A    between atoms: C_15  and  C_16
REMARK    8  A    between atoms: C_19  and  C_20
REMARK                            x       y       z     vdW  Elec       q    Type
REMARK                         _______ _______ _______ _____ _____    ______ ____
USER                              x       y       z     vdW  Elec       q    Type
USER                           _______ _______ _______ _____ _____    ______ ____
ROOT
ATOM      1  N   UNL     1     157.146 166.838 177.547 -0.23 +0.15    -0.302 N 
ATOM      2  C   UNL     1     157.821 168.050 177.488 -0.29 -0.08    +0.165 A 
ATOM      3  N   UNL     1     157.038 168.969 178.041 -0.37 +0.08    -0.128 NA
ATOM      4  N   UNL     1     155.857 168.392 178.429 -0.38 +0.08    -0.122 NA
ATOM      5  C   UNL     1     155.933 167.117 178.137 -0.31 -0.10    +0.192 A 
ENDROOT
BRANCH   2   6
ATOM      6  C   UNL     1     159.174 168.355 176.985 -0.45 -0.01    +0.022 A 
ATOM      7  C   UNL     1     160.299 167.565 177.223 -0.38 -0.01    +0.031 A 
ATOM      8  C   UNL     1     161.514 167.929 176.656 -0.34 -0.01    +0.111 A 
ATOM      9  N   UNL     1     161.687 169.001 175.857 -0.20 +0.02    -0.263 NA
ATOM     10  C   UNL     1     160.587 169.736 175.602 -0.37 -0.00    +0.111 A 
ATOM     11  C   UNL     1     159.337 169.461 176.137 -0.30 -0.01    +0.031 A 
ENDBRANCH   2   6
BRANCH   1  13
ATOM     12  C   UNL     1     157.002 165.083 175.798 -0.39 -0.02    +0.027 C 
ATOM     13  C   UNL     1     157.588 165.525 177.129 -0.34 -0.05    +0.122 C 
ENDBRANCH   1  13
BRANCH   5  14
ATOM     14  S   UNL     1     154.748 165.924 178.543 -0.50 +0.04    -0.077 S 
BRANCH  14  15
ATOM     15  C   UNL     1     154.284 166.410 180.237 -0.31 -0.11    +0.173 C 
BRANCH  15  16
ATOM     16  C   UNL     1     152.848 166.019 180.611 -0.23 -0.13    +0.226 C 
ATOM     17  N   UNL     1     151.996 167.055 181.044 -0.09 +0.21    -0.295 N 
ATOM     18  C   UNL     1     152.507 168.347 181.567 -0.27 -0.08    +0.073 C 
ATOM     19  C   UNL     1     152.154 169.528 180.659 -0.29 -0.03    +0.028 C 
ATOM     20  C   UNL     1     152.027 168.565 183.013 -0.31 -0.03    +0.022 C 
ATOM     21  C   UNL     1     150.514 168.436 183.153 -0.27 -0.00    +0.003 C 
ATOM     22  C   UNL     1     150.043 167.096 182.596 -0.28 -0.02    +0.022 C 
ATOM     23  C   UNL     1     150.520 166.879 181.151 -0.24 -0.04    +0.073 C 
ATOM     24  C   UNL     1     149.910 165.585 180.608 -0.37 -0.01    +0.028 C 
ATOM     25  O   UNL     1     152.471 164.850 180.516 -0.20 +0.10    -0.275 OA
ENDBRANCH  15  16
ENDBRANCH  14  15
ENDBRANCH   5  14
TORSDOF 5
TER
ENDMDL
