MODEL        1
USER    Run = 1
USER
USER    Estimated Free Energy of Binding    =  -5.57 kcal/mol  [=(1)+(2)+(3)-(4)]
USER
USER    (1) Final Intermolecular Energy     =  -7.66 kcal/mol
USER        vdW + Hbond + desolv Energy     =  -7.59 kcal/mol
USER        Electrostatic Energy            =  -0.07 kcal/mol
USER        Moving Ligand-Fixed Receptor    =  -7.66 kcal/mol
USER        Moving Ligand-Moving Receptor   =  +0.00 kcal/mol
USER    (2) Final Total Internal Energy     =  -1.78 kcal/mol
USER    (3) Torsional Free Energy           =  +2.09 kcal/mol
USER    (4) Unbound System's Energy         =  -1.78 kcal/mol
USER
USER
REMARK  Name = Z16291592
REMARK  9 active torsions:
REMARK  status: ('A' for Active; 'I' for Inactive)
REMARK    1  A    between atoms: C_1  and  C_2
REMARK    2  A    between atoms: C_2  and  N_3
REMARK    3  A    between atoms: C_4  and  C_6
REMARK    4  A    between atoms: C_6  and  O_7
REMARK    5  A    between atoms: O_7  and  C_8
REMARK    6  A    between atoms: C_11  and  N_14
REMARK    7  A    between atoms: N_14  and  C_15
REMARK    8  A    between atoms: N_14  and  S_16
REMARK    9  A    between atoms: S_16  and  C_19
REMARK                            x       y       z     vdW  Elec       q    Type
REMARK                         _______ _______ _______ _____ _____    ______ ____
USER                              x       y       z     vdW  Elec       q    Type
USER                           _______ _______ _______ _____ _____    ______ ____
ROOT
ATOM      1  C   UNL     1     164.397 169.936 173.032 -0.25 -0.04    +0.121 A 
ATOM      2  C   UNL     1     163.908 171.013 173.772 -0.17 -0.01    +0.047 A 
ATOM      3  C   UNL     1     162.736 170.881 174.523 -0.17 -0.00    +0.028 A 
ATOM      4  C   UNL     1     162.064 169.656 174.559 -0.33 -0.00    +0.051 A 
ATOM      5  C   UNL     1     162.591 168.561 173.880 -0.24 -0.00    +0.028 A 
ATOM      6  C   UNL     1     163.754 168.698 173.117 -0.35 -0.01    +0.047 A 
ENDROOT
BRANCH   4   7
ATOM      7  N   UNL     1     160.852 169.486 175.303 -0.28 +0.00    -0.206 N 
ATOM      8  C   UNL     1     159.727 170.383 174.998 -0.32 +0.00    +0.157 C 
BRANCH   7   9
ATOM      9  S   UNL     1     160.968 168.881 176.893 -0.60 -0.01    +0.074 S 
ATOM     10  O   UNL     1     161.110 169.998 177.808 -0.36 +0.02    -0.150 OA
ATOM     11  O   UNL     1     161.920 167.792 176.898 -0.44 +0.01    -0.150 OA
BRANCH   9  12
ATOM     12  C   UNL     1     159.352 168.176 177.184 -0.35 -0.03    +0.109 A 
ATOM     13  C   UNL     1     159.195 166.787 177.113 -0.05 -0.01    +0.030 A 
ATOM     14  C   UNL     1     157.954 166.216 177.396 -0.34 -0.01    +0.022 A 
ATOM     15  C   UNL     1     156.874 167.037 177.721 -0.42 -0.02    +0.041 A 
ATOM     16 CL   UNL     1     155.357 166.330 178.114 -0.57 +0.04    -0.084 Cl
ATOM     17  C   UNL     1     157.017 168.427 177.738 -0.44 -0.01    +0.022 A 
ATOM     18  C   UNL     1     158.260 169.005 177.460 -0.36 -0.01    +0.030 A 
ENDBRANCH   9  12
ENDBRANCH   7   9
ENDBRANCH   4   7
BRANCH   1  19
ATOM     19  O   UNL     1     165.500 170.198 172.263 -0.06 +0.17    -0.483 OA
BRANCH  19  20
ATOM     20  C   UNL     1     165.900 171.569 172.234 -0.08 -0.06    +0.324 C 
BRANCH  20  23
ATOM     21  N   UNL     1     164.598 171.611 170.153 -0.11 +0.05    -0.313 N 
ATOM     22  H   UNL     1     164.165 170.782 170.547 +0.01 -0.04    +0.149 HD
ATOM     23  C   UNL     1     165.521 172.275 170.931 -0.10 +0.03    +0.251 C 
ATOM     24  O   UNL     1     166.036 173.340 170.603 -0.44 -0.09    -0.272 OA
BRANCH  21  26
ATOM     25  C   UNL     1     163.000 173.069 168.988 -0.46 -0.01    +0.024 C 
ATOM     26  C   UNL     1     164.170 172.111 168.867 -0.31 -0.03    +0.101 C 
ENDBRANCH  21  26
ENDBRANCH  20  23
ENDBRANCH  19  20
ENDBRANCH   1  19
TORSDOF 7
TER
ENDMDL
