MODEL        1
USER    Run = 1
USER
USER    Estimated Free Energy of Binding    =  -4.22 kcal/mol  [=(1)+(2)+(3)-(4)]
USER
USER    (1) Final Intermolecular Energy     =  -5.71 kcal/mol
USER        vdW + Hbond + desolv Energy     =  -5.76 kcal/mol
USER        Electrostatic Energy            =  +0.05 kcal/mol
USER        Moving Ligand-Fixed Receptor    =  -5.71 kcal/mol
USER        Moving Ligand-Moving Receptor   =  +0.00 kcal/mol
USER    (2) Final Total Internal Energy     =  -2.27 kcal/mol
USER    (3) Torsional Free Energy           =  +1.49 kcal/mol
USER    (4) Unbound System's Energy         =  -2.27 kcal/mol
USER
USER
REMARK  Name = Z16226229
REMARK  5 active torsions:
REMARK  status: ('A' for Active; 'I' for Inactive)
REMARK    1  A    between atoms: C_2  and  C_5
REMARK    2  A    between atoms: C_10  and  N_11
REMARK    3  A    between atoms: C_12  and  C_14
REMARK    4  A    between atoms: C_14  and  S_15
REMARK    5  A    between atoms: S_15  and  C_16
REMARK                            x       y       z     vdW  Elec       q    Type
REMARK                         _______ _______ _______ _____ _____    ______ ____
USER                              x       y       z     vdW  Elec       q    Type
USER                           _______ _______ _______ _____ _____    ______ ____
ROOT
ATOM      1  N   UNL     1     155.512 164.358 177.824 +0.00 +0.13    -0.284 N 
ATOM      2  H   UNL     1     155.122 165.100 178.390 +0.10 -0.07    +0.155 HD
ATOM      3  C   UNL     1     156.574 164.758 177.002 -0.21 -0.11    +0.228 C 
ATOM      4  O   UNL     1     157.011 164.003 176.123 -0.30 +0.18    -0.275 OA
ENDROOT
BRANCH   1   6
ATOM      5  C   UNL     1     153.431 162.924 178.142 -0.20 -0.03    +0.076 A 
ATOM      6  C   UNL     1     154.821 163.046 177.850 +0.01 -0.02    +0.045 A 
ATOM      7  C   UNL     1     155.462 161.816 177.565 -0.31 -0.01    +0.024 A 
ATOM      8  C   UNL     1     154.789 160.557 177.584 -0.28 -0.00    +0.002 A 
ATOM      9  C   UNL     1     153.442 160.467 177.887 -0.26 -0.00    +0.001 A 
ATOM     10  C   UNL     1     152.772 161.646 178.153 -0.26 -0.00    +0.014 A 
BRANCH   5  12
ATOM     11  F   UNL     1     152.047 164.223 179.613 -0.09 +0.04    -0.166 F 
ATOM     12  C   UNL     1     152.515 164.101 178.334 -0.12 -0.14    +0.419 C 
ATOM     13  F   UNL     1     153.094 165.295 178.042 -0.06 +0.09    -0.166 F 
ATOM     14  F   UNL     1     151.400 164.022 177.556 -0.09 +0.05    -0.166 F 
ENDBRANCH   5  12
ENDBRANCH   1   6
BRANCH   3  15
ATOM     15  C   UNL     1     157.218 166.249 177.100 -0.36 -0.08    +0.173 C 
BRANCH  15  16
ATOM     16  S   UNL     1     156.002 167.866 177.533 -0.61 +0.05    -0.076 S 
BRANCH  16  17
ATOM     17  C   UNL     1     154.989 167.485 179.007 -0.27 -0.14    +0.198 A 
ATOM     18  N   UNL     1     153.728 168.080 179.623 -0.22 +0.26    -0.253 N 
ATOM     19  C   UNL     1     153.534 166.719 180.306 -0.18 -0.19    +0.257 A 
ATOM     20  N   UNL     1     152.384 166.452 180.981 -0.19 +0.13    -0.213 NA
ATOM     21  C   UNL     1     151.804 167.578 181.100 -0.20 -0.06    +0.073 A 
ATOM     22  C   UNL     1     150.611 167.716 182.041 -0.22 -0.06    +0.084 C 
ATOM     23  C   UNL     1     150.002 169.061 181.986 -0.16 +0.02    -0.021 C 
ATOM     24  C   UNL     1     150.520 170.005 181.193 -0.13 +0.00    -0.002 C 
ATOM     25  C   UNL     1     151.752 169.789 180.349 -0.28 -0.03    +0.028 C 
ATOM     26  N   UNL     1     154.601 165.994 180.439 -0.31 +0.06    -0.108 NA
ATOM     27  C   UNL     1     152.469 168.630 180.279 -0.24 -0.07    +0.073 A 
ATOM     28  N   UNL     1     155.533 166.512 179.680 -0.32 +0.06    -0.120 NA
ENDBRANCH  16  17
ENDBRANCH  15  16
ENDBRANCH   3  15
TORSDOF 5
TER
ENDMDL
