MODEL        1
USER    Run = 1
USER
USER    Estimated Free Energy of Binding    =  -4.65 kcal/mol  [=(1)+(2)+(3)-(4)]
USER
USER    (1) Final Intermolecular Energy     =  -5.84 kcal/mol
USER        vdW + Hbond + desolv Energy     =  -5.86 kcal/mol
USER        Electrostatic Energy            =  +0.01 kcal/mol
USER        Moving Ligand-Fixed Receptor    =  -5.84 kcal/mol
USER        Moving Ligand-Moving Receptor   =  +0.00 kcal/mol
USER    (2) Final Total Internal Energy     =  -1.82 kcal/mol
USER    (3) Torsional Free Energy           =  +1.19 kcal/mol
USER    (4) Unbound System's Energy         =  -1.82 kcal/mol
USER
USER
REMARK  Name = Z16225291
REMARK  6 active torsions:
REMARK  status: ('A' for Active; 'I' for Inactive)
REMARK    1  A    between atoms: C_1  and  C_2
REMARK    2  A    between atoms: C_2  and  C_3
REMARK    3  A    between atoms: C_2  and  N_4
REMARK    4  A    between atoms: C_5  and  C_7
REMARK    5  A    between atoms: C_7  and  S_8
REMARK    6  A    between atoms: S_8  and  C_9
REMARK                            x       y       z     vdW  Elec       q    Type
REMARK                         _______ _______ _______ _____ _____    ______ ____
USER                              x       y       z     vdW  Elec       q    Type
USER                           _______ _______ _______ _____ _____    ______ ____
ROOT
ATOM      1  C   UNL     1     159.531 169.346 176.671 -0.20 -0.04    +0.198 A 
ATOM      2  N   UNL     1     158.555 168.368 176.871 -0.28 +0.11    -0.253 N 
ATOM      3  C   UNL     1     159.280 167.183 176.806 +0.05 -0.06    +0.257 A 
ATOM      4  N   UNL     1     158.549 166.067 177.083 -0.04 +0.06    -0.213 NA
ATOM      5  C   UNL     1     157.426 166.541 177.562 -0.34 -0.03    +0.073 A 
ATOM      6  C   UNL     1     156.434 165.675 178.288 -0.21 -0.04    +0.084 C 
ATOM      7  C   UNL     1     155.283 166.466 178.789 -0.48 +0.01    -0.021 C 
ATOM      8  C   UNL     1     155.195 167.796 178.629 -0.52 +0.00    -0.002 C 
ATOM      9  C   UNL     1     156.237 168.609 177.982 -0.18 -0.02    +0.028 C 
ATOM     10  N   UNL     1     160.565 167.442 176.940 -0.37 +0.02    -0.108 NA
ATOM     11  C   UNL     1     157.320 168.040 177.445 -0.40 -0.04    +0.073 A 
ATOM     12  N   UNL     1     160.677 168.803 177.067 -0.43 +0.02    -0.120 NA
ENDROOT
BRANCH   1  13
ATOM     13  S   UNL     1     159.689 170.425 175.280 -0.56 +0.00    -0.076 S 
BRANCH  13  14
ATOM     14  C   UNL     1     161.508 170.882 175.225 -0.32 +0.00    +0.173 C 
BRANCH  14  17
ATOM     15  N   UNL     1     162.692 168.681 174.962 -0.14 +0.04    -0.312 N 
ATOM     16  H   UNL     1     162.106 168.417 175.752 +0.10 -0.01    +0.149 HD
ATOM     17  C   UNL     1     162.543 169.965 174.517 -0.21 -0.03    +0.224 C 
ATOM     18  O   UNL     1     163.304 170.439 173.663 -0.19 +0.05    -0.275 OA
BRANCH  15  20
ATOM     19  C   UNL     1     163.582 167.016 173.268 -0.36 -0.01    +0.027 C 
ATOM     20  C   UNL     1     163.738 167.700 174.626 -0.45 -0.02    +0.067 C 
ATOM     21  C   UNL     1     165.169 168.227 174.776 -0.33 -0.01    +0.027 C 
ENDBRANCH  15  20
ENDBRANCH  14  17
ENDBRANCH  13  14
ENDBRANCH   1  13
TORSDOF 4
TER
ENDMDL
