MODEL        1
USER    Run = 1
USER
USER    Estimated Free Energy of Binding    =  -5.43 kcal/mol  [=(1)+(2)+(3)-(4)]
USER
USER    (1) Final Intermolecular Energy     =  -6.92 kcal/mol
USER        vdW + Hbond + desolv Energy     =  -6.89 kcal/mol
USER        Electrostatic Energy            =  -0.03 kcal/mol
USER        Moving Ligand-Fixed Receptor    =  -6.92 kcal/mol
USER        Moving Ligand-Moving Receptor   =  +0.00 kcal/mol
USER    (2) Final Total Internal Energy     =  -1.59 kcal/mol
USER    (3) Torsional Free Energy           =  +1.49 kcal/mol
USER    (4) Unbound System's Energy         =  -1.59 kcal/mol
USER
USER
REMARK  Name = Z16226045
REMARK  5 active torsions:
REMARK  status: ('A' for Active; 'I' for Inactive)
REMARK    1  A    between atoms: C_5  and  C_6
REMARK    2  A    between atoms: C_6  and  N_7
REMARK    3  A    between atoms: C_8  and  C_10
REMARK    4  A    between atoms: C_10  and  S_11
REMARK    5  A    between atoms: S_11  and  C_12
REMARK                            x       y       z     vdW  Elec       q    Type
REMARK                         _______ _______ _______ _____ _____    ______ ____
USER                              x       y       z     vdW  Elec       q    Type
USER                           _______ _______ _______ _____ _____    ______ ____
ROOT
ATOM      1  C   UNL     1     163.005 166.852 174.835 -0.15 -0.04    +0.173 C 
ENDROOT
BRANCH   1   4
ATOM      2  N   UNL     1     163.143 169.269 174.259 -0.15 +0.06    -0.310 N 
ATOM      3  H   UNL     1     162.130 169.224 174.310 +0.10 -0.01    +0.149 HD
ATOM      4  C   UNL     1     163.817 168.069 174.356 -0.33 -0.06    +0.224 C 
ATOM      5  O   UNL     1     164.997 167.961 174.019 -0.37 +0.08    -0.275 OA
BRANCH   2   6
ATOM      6  C   UNL     1     163.800 170.488 173.805 -0.23 -0.03    +0.139 C 
BRANCH   6  11
ATOM      7 CL   UNL     1     163.763 175.160 177.677 -0.36 -0.05    -0.084 Cl
ATOM      8  C   UNL     1     163.791 173.813 176.604 -0.22 +0.01    +0.041 A 
ATOM      9  C   UNL     1     162.630 173.085 176.364 -0.22 +0.01    +0.020 A 
ATOM     10  C   UNL     1     162.659 172.006 175.469 -0.25 +0.00    +0.006 A 
ATOM     11  C   UNL     1     163.842 171.641 174.795 -0.13 +0.01    -0.030 A 
ATOM     12  C   UNL     1     165.005 172.373 175.086 -0.17 -0.00    +0.006 A 
ATOM     13  C   UNL     1     164.978 173.455 175.975 -0.18 -0.00    +0.020 A 
ENDBRANCH   6  11
ENDBRANCH   2   6
ENDBRANCH   1   4
BRANCH   1  14
ATOM     14  S   UNL     1     162.586 166.921 176.707 -0.40 +0.01    -0.076 S 
BRANCH  14  15
ATOM     15  C   UNL     1     161.222 167.998 176.640 -0.27 -0.02    +0.198 A 
ATOM     16  N   UNL     1     159.848 167.850 176.842 -0.27 +0.05    -0.253 N 
ATOM     17  C   UNL     1     159.396 169.151 176.638 -0.17 -0.06    +0.257 A 
ATOM     18  N   UNL     1     158.062 169.335 176.801 -0.23 +0.11    -0.213 NA
ATOM     19  C   UNL     1     157.622 168.154 177.124 -0.29 -0.04    +0.073 A 
ATOM     20  C   UNL     1     156.179 167.938 177.459 -0.43 -0.06    +0.084 C 
ATOM     21  C   UNL     1     155.900 166.516 177.792 -0.49 +0.01    -0.021 C 
ATOM     22  C   UNL     1     156.859 165.577 177.778 -0.44 +0.00    -0.002 C 
ATOM     23  C   UNL     1     158.275 165.857 177.469 -0.29 -0.01    +0.028 C 
ATOM     24  N   UNL     1     160.364 169.980 176.375 -0.37 +0.01    -0.108 NA
ATOM     25  C   UNL     1     158.693 167.099 177.160 -0.27 -0.02    +0.073 A 
ATOM     26  N   UNL     1     161.488 169.256 176.375 -0.33 +0.01    -0.120 NA
ENDBRANCH  14  15
ENDBRANCH   1  14
TORSDOF 5
TER
ENDMDL
