MODEL        1
USER    Run = 1
USER
USER    Estimated Free Energy of Binding    =  -5.65 kcal/mol  [=(1)+(2)+(3)-(4)]
USER
USER    (1) Final Intermolecular Energy     =  -7.74 kcal/mol
USER        vdW + Hbond + desolv Energy     =  -7.58 kcal/mol
USER        Electrostatic Energy            =  -0.16 kcal/mol
USER        Moving Ligand-Fixed Receptor    =  -7.74 kcal/mol
USER        Moving Ligand-Moving Receptor   =  +0.00 kcal/mol
USER    (2) Final Total Internal Energy     =  -1.34 kcal/mol
USER    (3) Torsional Free Energy           =  +2.09 kcal/mol
USER    (4) Unbound System's Energy         =  -1.34 kcal/mol
USER
USER
REMARK  Name = Z16225255
REMARK  10 active torsions:
REMARK  status: ('A' for Active; 'I' for Inactive)
REMARK    1  A    between atoms: C_1  and  C_2
REMARK    2  A    between atoms: C_2  and  O_3
REMARK    3  A    between atoms: O_3  and  C_4
REMARK    4  A    between atoms: C_4  and  C_6
REMARK    5  A    between atoms: C_7  and  C_8
REMARK    6  A    between atoms: C_9  and  C_10
REMARK    7  A    between atoms: C_12  and  N_13
REMARK    8  A    between atoms: C_14  and  C_16
REMARK    9  A    between atoms: C_16  and  S_17
REMARK   10  A    between atoms: S_17  and  C_18
REMARK                            x       y       z     vdW  Elec       q    Type
REMARK                         _______ _______ _______ _____ _____    ______ ____
USER                              x       y       z     vdW  Elec       q    Type
USER                           _______ _______ _______ _____ _____    ______ ____
ROOT
ATOM      1  N   UNL     1     161.680 170.390 174.916 -0.22 +0.01    -0.279 N 
ATOM      2  H   UNL     1     161.699 169.402 174.666 +0.11 -0.01    +0.155 HD
ATOM      3  C   UNL     1     160.448 170.981 175.347 -0.25 +0.01    +0.228 C 
ATOM      4  O   UNL     1     160.338 172.187 175.569 -0.43 -0.12    -0.275 OA
ENDROOT
BRANCH   1   6
ATOM      5  C   UNL     1     163.867 170.892 173.544 -0.13 -0.02    +0.091 A 
ATOM      6  C   UNL     1     162.875 171.140 174.525 -0.05 -0.01    +0.086 A 
ATOM      7  S   UNL     1     163.263 172.614 175.316 -0.33 -0.00    -0.078 S 
ATOM      8  C   UNL     1     164.659 172.950 174.382 -0.15 +0.00    -0.008 A 
ATOM      9  C   UNL     1     165.444 174.219 174.623 -0.03 -0.01    +0.052 C 
ATOM     10  C   UNL     1     164.899 171.952 173.453 -0.19 +0.01    -0.025 A 
ATOM     11  C   UNL     1     166.071 171.995 172.488 -0.21 -0.01    +0.045 C 
BRANCH   5  12
ATOM     12  C   UNL     1     163.823 169.759 172.627 -0.15 -0.09    +0.342 C 
ATOM     13  O   UNL     1     164.340 169.752 171.515 -0.25 +0.07    -0.245 OA
BRANCH  12  14
ATOM     14  O   UNL     1     163.075 168.749 173.144 -0.12 +0.09    -0.461 OA
BRANCH  14  16
ATOM     15  C   UNL     1     163.760 166.472 173.439 -0.43 -0.01    +0.048 C 
ATOM     16  C   UNL     1     163.788 167.868 174.007 -0.33 -0.06    +0.229 C 
ENDBRANCH  14  16
ENDBRANCH  12  14
ENDBRANCH   5  12
ENDBRANCH   1   6
BRANCH   3  17
ATOM     17  C   UNL     1     159.145 170.076 175.605 -0.13 -0.02    +0.173 C 
BRANCH  17  18
ATOM     18  S   UNL     1     159.366 168.798 177.293 -0.65 +0.02    -0.076 S 
BRANCH  18  19
ATOM     19  C   UNL     1     157.967 167.605 177.319 -0.22 -0.09    +0.198 A 
ATOM     20  N   UNL     1     156.598 167.577 178.002 -0.31 +0.14    -0.253 N 
ATOM     21  C   UNL     1     156.545 166.087 177.607 -0.22 -0.12    +0.257 A 
ATOM     22  N   UNL     1     155.560 165.285 178.082 -0.18 +0.10    -0.213 NA
ATOM     23  C   UNL     1     154.695 166.088 178.571 -0.33 -0.04    +0.073 A 
ATOM     24  C   UNL     1     153.305 165.575 178.917 -0.32 -0.05    +0.084 C 
ATOM     25  C   UNL     1     152.493 166.584 179.626 -0.30 +0.02    -0.021 C 
ATOM     26  C   UNL     1     152.982 167.813 179.838 -0.34 +0.00    -0.002 C 
ATOM     27  C   UNL     1     154.335 168.259 179.345 -0.40 -0.03    +0.028 C 
ATOM     28  N   UNL     1     157.268 165.759 176.583 -0.39 +0.05    -0.108 NA
ATOM     29  C   UNL     1     155.229 167.476 178.667 -0.39 -0.05    +0.073 A 
ATOM     30  N   UNL     1     158.122 166.725 176.366 -0.27 +0.05    -0.120 NA
ENDBRANCH  18  19
ENDBRANCH  17  18
ENDBRANCH   3  17
TORSDOF 7
TER
ENDMDL
