MODEL        1
USER    Run = 1
USER
USER    Estimated Free Energy of Binding    =  -5.39 kcal/mol  [=(1)+(2)+(3)-(4)]
USER
USER    (1) Final Intermolecular Energy     =  -7.18 kcal/mol
USER        vdW + Hbond + desolv Energy     =  -7.17 kcal/mol
USER        Electrostatic Energy            =  -0.01 kcal/mol
USER        Moving Ligand-Fixed Receptor    =  -7.18 kcal/mol
USER        Moving Ligand-Moving Receptor   =  +0.00 kcal/mol
USER    (2) Final Total Internal Energy     =  -0.76 kcal/mol
USER    (3) Torsional Free Energy           =  +1.79 kcal/mol
USER    (4) Unbound System's Energy         =  -0.76 kcal/mol
USER
USER
REMARK  Name = Z16260651
REMARK  8 active torsions:
REMARK  status: ('A' for Active; 'I' for Inactive)
REMARK    1  A    between atoms: C_1  and  C_2
REMARK    2  A    between atoms: C_2  and  N_3
REMARK    3  A    between atoms: C_7  and  C_9
REMARK    4  A    between atoms: C_9  and  S_10
REMARK    5  A    between atoms: S_10  and  C_11
REMARK    6  A    between atoms: C_14  and  C_15
REMARK    7  A    between atoms: N_21  and  C_22
REMARK    8  A    between atoms: C_22  and  C_23
REMARK                            x       y       z     vdW  Elec       q    Type
REMARK                         _______ _______ _______ _____ _____    ______ ____
USER                              x       y       z     vdW  Elec       q    Type
USER                           _______ _______ _______ _____ _____    ______ ____
ROOT
ATOM      1  C   UNL     1     160.750 168.495 176.616 -0.29 -0.02    +0.192 A 
ATOM      2  N   UNL     1     161.105 169.297 175.560 -0.20 +0.01    -0.302 N 
ATOM      3  C   UNL     1     162.254 168.716 175.028 -0.20 -0.02    +0.165 A 
ATOM      4  N   UNL     1     162.524 167.633 175.738 -0.35 +0.02    -0.128 NA
ATOM      5  N   UNL     1     161.578 167.487 176.715 -0.39 +0.01    -0.122 NA
ENDROOT
BRANCH   3   6
ATOM      6  C   UNL     1     163.086 169.187 173.913 -0.35 -0.00    +0.019 A 
ATOM      7  C   UNL     1     162.733 168.878 172.589 -0.35 -0.00    +0.012 A 
ATOM      8  C   UNL     1     163.491 169.348 171.509 -0.27 -0.00    +0.001 A 
ATOM      9  C   UNL     1     164.620 170.135 171.733 -0.22 -0.00    +0.000 A 
ATOM     10  C   UNL     1     164.980 170.461 173.032 -0.31 -0.00    +0.001 A 
ATOM     11  C   UNL     1     164.205 170.006 174.101 -0.29 -0.00    +0.012 A 
ENDBRANCH   3   6
BRANCH   2  12
ATOM     12  C   UNL     1     160.535 170.583 175.219 -0.43 +0.00    +0.122 C 
ATOM     13  C   UNL     1     161.365 171.784 175.657 -0.37 +0.00    +0.027 C 
ENDBRANCH   2  12
BRANCH   1  14
ATOM     14  S   UNL     1     159.519 168.793 177.790 -0.49 +0.03    -0.077 S 
BRANCH  14  15
ATOM     15  C   UNL     1     158.048 168.011 177.117 -0.35 -0.09    +0.173 C 
BRANCH  15  21
ATOM     16  N   UNL     1     154.388 167.513 179.387 -0.23 +0.25    -0.299 N 
ATOM     17  H   UNL     1     154.939 168.362 179.488 -0.12 -0.15    +0.150 HD
ATOM     18  C   UNL     1     154.952 166.479 178.703 -0.25 -0.17    +0.306 C 
ATOM     19  N   UNL     1     156.164 166.736 178.110 -0.29 +0.12    -0.239 N 
ATOM     20  H   UNL     1     156.473 165.951 177.548 +0.11 -0.07    +0.159 HD
ATOM     21  C   UNL     1     156.801 167.949 177.976 -0.32 -0.13    +0.231 C 
ATOM     22  O   UNL     1     156.453 168.961 178.593 -0.25 +0.19    -0.274 OA
ATOM     23  O   UNL     1     154.430 165.373 178.592 -0.28 +0.12    -0.252 OA
BRANCH  16  25
ATOM     24  C   UNL     1     153.281 166.662 181.402 -0.39 -0.02    +0.024 C 
ATOM     25  C   UNL     1     153.127 167.396 180.083 -0.31 -0.09    +0.102 C 
ENDBRANCH  16  25
ENDBRANCH  15  21
ENDBRANCH  14  15
ENDBRANCH   1  14
TORSDOF 6
TER
ENDMDL
