MODEL        1
USER    Run = 1
USER
USER    Estimated Free Energy of Binding    =  -5.94 kcal/mol  [=(1)+(2)+(3)-(4)]
USER
USER    (1) Final Intermolecular Energy     =  -7.43 kcal/mol
USER        vdW + Hbond + desolv Energy     =  -7.44 kcal/mol
USER        Electrostatic Energy            =  +0.01 kcal/mol
USER        Moving Ligand-Fixed Receptor    =  -7.43 kcal/mol
USER        Moving Ligand-Moving Receptor   =  +0.00 kcal/mol
USER    (2) Final Total Internal Energy     =  -0.32 kcal/mol
USER    (3) Torsional Free Energy           =  +1.49 kcal/mol
USER    (4) Unbound System's Energy         =  -0.32 kcal/mol
USER
USER
REMARK  Name = Z16224932
REMARK  6 active torsions:
REMARK  status: ('A' for Active; 'I' for Inactive)
REMARK    1  A    between atoms: C_1  and  C_2
REMARK    2  A    between atoms: C_6  and  O_7
REMARK    3  A    between atoms: O_7  and  C_8
REMARK    4  A    between atoms: C_8  and  C_9
REMARK    5  A    between atoms: C_9  and  S_10
REMARK    6  A    between atoms: S_10  and  C_11
REMARK                            x       y       z     vdW  Elec       q    Type
REMARK                         _______ _______ _______ _____ _____    ______ ____
USER                              x       y       z     vdW  Elec       q    Type
USER                           _______ _______ _______ _____ _____    ______ ____
ROOT
ATOM      1  C   UNL     1     156.318 166.956 177.846 -0.31 -0.10    +0.198 A 
ATOM      2  N   UNL     1     155.092 166.139 178.243 -0.24 +0.13    -0.253 N 
ATOM      3  C   UNL     1     154.827 167.230 179.284 -0.22 -0.19    +0.257 A 
ATOM      4  N   UNL     1     153.885 167.051 180.245 -0.25 +0.18    -0.213 NA
ATOM      5  C   UNL     1     153.189 166.057 179.829 -0.28 -0.04    +0.073 A 
ATOM      6  C   UNL     1     151.852 165.736 180.482 -0.31 -0.04    +0.084 C 
ATOM      7  C   UNL     1     151.240 164.508 179.932 -0.34 +0.00    -0.021 C 
ATOM      8  C   UNL     1     151.850 163.821 178.955 -0.33 +0.00    -0.002 C 
ATOM      9  C   UNL     1     153.148 164.258 178.334 -0.33 -0.01    +0.028 C 
ATOM     10  N   UNL     1     155.293 168.404 178.967 -0.40 +0.09    -0.108 NA
ATOM     11  C   UNL     1     153.846 165.383 178.672 -0.27 -0.04    +0.073 A 
ATOM     12  N   UNL     1     156.173 168.242 178.009 -0.44 +0.08    -0.120 NA
ENDROOT
BRANCH   1  13
ATOM     13  S   UNL     1     157.903 166.583 176.965 -0.53 +0.03    -0.082 S 
BRANCH  13  14
ATOM     14  C   UNL     1     159.280 168.238 177.133 -0.44 -0.03    +0.118 C 
BRANCH  14  15
ATOM     15  C   UNL     1     159.469 169.425 175.992 -0.21 -0.04    +0.240 C 
BRANCH  15  16
ATOM     16  O   UNL     1     160.785 170.162 175.822 -0.15 +0.01    -0.491 OA
BRANCH  16  20
ATOM     17  C   UNL     1     164.406 170.006 172.304 -0.34 -0.01    +0.044 C 
ATOM     18  C   UNL     1     163.690 169.375 173.470 -0.34 +0.01    -0.047 A 
ATOM     19  C   UNL     1     162.643 170.084 174.146 -0.26 -0.01    +0.049 A 
ATOM     20  C   UNL     1     161.878 169.519 175.177 -0.28 -0.01    +0.121 A 
ATOM     21  C   UNL     1     162.262 168.197 175.547 -0.31 -0.00    +0.045 A 
ATOM     22  C   UNL     1     163.332 167.495 174.907 -0.41 -0.00    +0.004 A 
ATOM     23  C   UNL     1     164.039 168.081 173.865 -0.44 -0.00    +0.003 A 
ENDBRANCH  16  20
ENDBRANCH  15  16
ENDBRANCH  14  15
ENDBRANCH  13  14
ENDBRANCH   1  13
TORSDOF 5
TER
ENDMDL
