MODEL        1
USER    Run = 1
USER
USER    Estimated Free Energy of Binding    =  -4.00 kcal/mol  [=(1)+(2)+(3)-(4)]
USER
USER    (1) Final Intermolecular Energy     =  -6.09 kcal/mol
USER        vdW + Hbond + desolv Energy     =  -5.88 kcal/mol
USER        Electrostatic Energy            =  -0.21 kcal/mol
USER        Moving Ligand-Fixed Receptor    =  -6.09 kcal/mol
USER        Moving Ligand-Moving Receptor   =  +0.00 kcal/mol
USER    (2) Final Total Internal Energy     =  -2.83 kcal/mol
USER    (3) Torsional Free Energy           =  +2.09 kcal/mol
USER    (4) Unbound System's Energy         =  -2.83 kcal/mol
USER
USER
REMARK  Name = Z16226085
REMARK  8 active torsions:
REMARK  status: ('A' for Active; 'I' for Inactive)
REMARK    1  A    between atoms: C_1  and  O_2
REMARK    2  A    between atoms: O_2  and  C_3
REMARK    3  A    between atoms: C_6  and  C_7
REMARK    4  A    between atoms: C_7  and  C_8
REMARK    5  A    between atoms: C_8  and  N_9
REMARK    6  A    between atoms: C_10  and  C_12
REMARK    7  A    between atoms: C_12  and  S_13
REMARK    8  A    between atoms: S_13  and  C_14
REMARK                            x       y       z     vdW  Elec       q    Type
REMARK                         _______ _______ _______ _____ _____    ______ ____
USER                              x       y       z     vdW  Elec       q    Type
USER                           _______ _______ _______ _____ _____    ______ ____
ROOT
ATOM      1  N   UNL     1     162.261 168.110 175.295 -0.16 +0.03    -0.314 N 
ATOM      2  H   UNL     1     161.780 169.003 175.396 +0.10 -0.01    +0.149 HD
ATOM      3  C   UNL     1     162.061 167.208 176.315 -0.25 -0.02    +0.223 C 
ATOM      4  O   UNL     1     162.627 166.106 176.239 -0.03 +0.05    -0.275 OA
ENDROOT
BRANCH   1   5
ATOM      5  C   UNL     1     163.221 167.983 174.140 -0.36 -0.02    +0.109 C 
BRANCH   5   6
ATOM      6  C   UNL     1     164.594 168.786 174.091 -0.43 -0.02    +0.054 C 
BRANCH   6  10
ATOM      7  C   UNL     1     165.362 171.930 171.114 -0.16 +0.00    +0.120 A 
ATOM      8  C   UNL     1     164.422 170.932 170.858 -0.09 -0.01    +0.046 A 
ATOM      9  C   UNL     1     164.155 169.931 171.819 -0.27 -0.00    +0.007 A 
ATOM     10  C   UNL     1     164.825 169.908 173.073 -0.29 +0.02    -0.046 A 
ATOM     11  C   UNL     1     165.721 170.945 173.312 -0.15 -0.00    +0.007 A 
ATOM     12  C   UNL     1     165.976 171.944 172.363 -0.19 -0.01    +0.046 A 
BRANCH   7  14
ATOM     13  C   UNL     1     164.562 173.076 169.203 -0.22 -0.06    +0.277 C 
ATOM     14  O   UNL     1     165.646 172.807 170.097 -0.34 -0.14    -0.495 OA
ENDBRANCH   7  14
ENDBRANCH   6  10
ENDBRANCH   5   6
ENDBRANCH   1   5
BRANCH   3  15
ATOM     15  C   UNL     1     161.001 167.489 177.501 -0.37 -0.03    +0.173 C 
BRANCH  15  16
ATOM     16  S   UNL     1     160.022 169.302 177.640 -0.50 +0.02    -0.076 S 
BRANCH  16  17
ATOM     17  C   UNL     1     160.814 170.473 176.512 -0.03 -0.00    +0.198 A 
ATOM     18  N   UNL     1     161.843 171.571 176.638 -0.18 -0.03    -0.253 N 
ATOM     19  C   UNL     1     162.139 171.304 175.155 -0.07 -0.00    +0.257 A 
ATOM     20  N   UNL     1     163.224 171.864 174.560 -0.06 +0.02    -0.213 NA
ATOM     21  C   UNL     1     163.583 172.787 175.378 -0.17 +0.00    +0.073 A 
ATOM     22  C   UNL     1     164.554 173.867 174.923 -0.15 -0.00    +0.084 C 
ATOM     23  C   UNL     1     164.919 174.792 176.028 -0.18 -0.00    -0.021 C 
ATOM     24  C   UNL     1     164.376 174.643 177.233 -0.26 -0.00    -0.002 C 
ATOM     25  C   UNL     1     163.360 173.588 177.573 -0.29 +0.01    +0.028 C 
ATOM     26  N   UNL     1     161.132 170.853 174.475 -0.21 -0.00    -0.108 NA
ATOM     27  C   UNL     1     162.884 172.654 176.685 -0.14 +0.01    +0.073 A 
ATOM     28  N   UNL     1     160.259 170.399 175.340 -0.44 -0.00    -0.120 NA
ENDBRANCH  16  17
ENDBRANCH  15  16
ENDBRANCH   3  15
TORSDOF 7
TER
ENDMDL
