MODEL        1
USER    Run = 1
USER
USER    Estimated Free Energy of Binding    =  -6.40 kcal/mol  [=(1)+(2)+(3)-(4)]
USER
USER    (1) Final Intermolecular Energy     =  -8.49 kcal/mol
USER        vdW + Hbond + desolv Energy     =  -8.51 kcal/mol
USER        Electrostatic Energy            =  +0.02 kcal/mol
USER        Moving Ligand-Fixed Receptor    =  -8.49 kcal/mol
USER        Moving Ligand-Moving Receptor   =  +0.00 kcal/mol
USER    (2) Final Total Internal Energy     =  -1.00 kcal/mol
USER    (3) Torsional Free Energy           =  +2.09 kcal/mol
USER    (4) Unbound System's Energy         =  -1.00 kcal/mol
USER
USER
REMARK  Name = Z16260273
REMARK  8 active torsions:
REMARK  status: ('A' for Active; 'I' for Inactive)
REMARK    1  A    between atoms: C_1  and  C_2
REMARK    2  A    between atoms: C_2  and  N_3
REMARK    3  A    between atoms: C_4  and  S_5
REMARK    4  A    between atoms: S_5  and  C_6
REMARK    5  A    between atoms: C_6  and  C_7
REMARK    6  A    between atoms: N_12  and  C_13
REMARK    7  A    between atoms: C_13  and  C_14
REMARK    8  A    between atoms: C_22  and  C_23
REMARK                            x       y       z     vdW  Elec       q    Type
REMARK                         _______ _______ _______ _____ _____    ______ ____
USER                              x       y       z     vdW  Elec       q    Type
USER                           _______ _______ _______ _____ _____    ______ ____
ROOT
ATOM      1  C   UNL     1     158.103 167.033 176.733 -0.28 -0.07    +0.173 C 
ENDROOT
BRANCH   1   2
ATOM      2  C   UNL     1     157.023 166.707 177.781 -0.29 -0.11    +0.231 C 
ATOM      3  N   UNL     1     156.041 167.673 177.935 -0.34 +0.14    -0.239 N 
ATOM      4  H   UNL     1     156.060 168.502 177.361 +0.03 -0.12    +0.159 HD
ATOM      5  C   UNL     1     155.050 167.719 178.896 -0.25 -0.23    +0.306 C 
ATOM      6  N   UNL     1     154.989 166.657 179.750 -0.22 +0.19    -0.295 N 
ATOM      7  H   UNL     1     155.503 165.824 179.473 +0.10 -0.07    +0.151 HD
ATOM      8  O   UNL     1     154.308 168.694 178.964 -0.31 +0.24    -0.252 OA
ATOM      9  O   UNL     1     156.989 165.650 178.418 -0.23 +0.11    -0.274 OA
BRANCH   6  10
ATOM     10  C   UNL     1     154.007 166.555 180.806 -0.30 -0.10    +0.141 C 
BRANCH  10  11
ATOM     11  C   UNL     1     152.693 165.950 180.363 -0.30 +0.02    -0.030 A 
ATOM     12  C   UNL     1     152.556 165.491 179.041 -0.31 -0.00    +0.005 A 
ATOM     13  C   UNL     1     151.355 164.936 178.592 -0.29 -0.00    +0.000 A 
ATOM     14  C   UNL     1     150.266 164.837 179.454 -0.27 -0.00    +0.000 A 
ATOM     15  C   UNL     1     150.374 165.316 180.758 -0.37 -0.00    +0.000 A 
ATOM     16  C   UNL     1     151.571 165.880 181.211 -0.32 -0.00    +0.005 A 
ENDBRANCH  10  11
ENDBRANCH   6  10
ENDBRANCH   1   2
BRANCH   1  17
ATOM     17  S   UNL     1     159.199 168.291 177.439 -0.56 +0.02    -0.077 S 
BRANCH  17  22
ATOM     18  N   UNL     1     161.105 169.136 175.666 -0.19 +0.01    -0.302 N 
ATOM     19  C   UNL     1     162.291 168.630 175.132 -0.20 -0.02    +0.165 A 
ATOM     20  N   UNL     1     162.602 167.540 175.829 -0.36 +0.02    -0.128 NA
ATOM     21  N   UNL     1     161.611 167.285 176.744 -0.38 +0.01    -0.122 NA
ATOM     22  C   UNL     1     160.712 168.223 176.622 -0.27 -0.02    +0.192 A 
BRANCH  19  23
ATOM     23  C   UNL     1     163.120 169.173 174.029 -0.35 -0.00    +0.019 A 
ATOM     24  C   UNL     1     162.783 168.861 172.701 -0.35 -0.00    +0.012 A 
ATOM     25  C   UNL     1     163.525 169.363 171.620 -0.28 -0.00    +0.001 A 
ATOM     26  C   UNL     1     164.625 170.184 171.847 -0.27 -0.00    +0.000 A 
ATOM     27  C   UNL     1     164.968 170.519 173.153 -0.31 -0.00    +0.001 A 
ATOM     28  C   UNL     1     164.211 170.032 174.225 -0.23 -0.00    +0.012 A 
ENDBRANCH  19  23
BRANCH  18  30
ATOM     29  C   UNL     1     161.131 171.737 175.617 -0.36 +0.01    +0.027 C 
ATOM     30  C   UNL     1     160.509 170.394 175.259 -0.44 +0.00    +0.122 C 
ENDBRANCH  18  30
ENDBRANCH  17  22
ENDBRANCH   1  17
TORSDOF 7
TER
ENDMDL
