MODEL        1
USER    Run = 1
USER
USER    Estimated Free Energy of Binding    =  -6.33 kcal/mol  [=(1)+(2)+(3)-(4)]
USER
USER    (1) Final Intermolecular Energy     =  -7.23 kcal/mol
USER        vdW + Hbond + desolv Energy     =  -7.26 kcal/mol
USER        Electrostatic Energy            =  +0.04 kcal/mol
USER        Moving Ligand-Fixed Receptor    =  -7.23 kcal/mol
USER        Moving Ligand-Moving Receptor   =  +0.00 kcal/mol
USER    (2) Final Total Internal Energy     =  -0.60 kcal/mol
USER    (3) Torsional Free Energy           =  +0.89 kcal/mol
USER    (4) Unbound System's Energy         =  -0.60 kcal/mol
USER
USER
REMARK  Name = Z16394443
REMARK  3 active torsions:
REMARK  status: ('A' for Active; 'I' for Inactive)
REMARK    1  A    between atoms: C_2  and  C_8
REMARK    2  A    between atoms: C_11  and  C_12
REMARK    3  A    between atoms: C_12  and  N_13
REMARK                            x       y       z     vdW  Elec       q    Type
REMARK                         _______ _______ _______ _____ _____    ______ ____
USER                              x       y       z     vdW  Elec       q    Type
USER                           _______ _______ _______ _____ _____    ______ ____
ROOT
ATOM      1  C   UNL     1     154.076 165.088 178.640 -0.25 -0.07    +0.153 C 
ENDROOT
BRANCH   1   2
ATOM      2  N   UNL     1     153.179 165.729 179.561 -0.21 +0.12    -0.220 N 
ATOM      3  C   UNL     1     151.861 165.997 179.319 -0.16 -0.15    +0.247 C 
ATOM      4  O   UNL     1     151.235 165.713 178.305 -0.18 +0.17    -0.273 OA
ATOM      5  C   UNL     1     151.286 166.747 180.535 -0.21 -0.07    +0.113 C 
ATOM      6  C   UNL     1     150.108 165.997 181.155 -0.37 -0.01    +0.035 C 
ATOM      7  C   UNL     1     149.515 166.767 182.337 -0.27 -0.00    +0.002 C 
ATOM      8  C   UNL     1     149.145 168.197 181.951 -0.17 -0.00    +0.000 C 
ATOM      9  C   UNL     1     150.313 168.949 181.317 -0.17 -0.00    +0.002 C 
ATOM     10  C   UNL     1     150.912 168.178 180.141 -0.19 -0.03    +0.035 C 
ATOM     11  N   UNL     1     152.444 166.725 181.401 -0.14 +0.19    -0.285 N 
ATOM     12  H   UNL     1     152.514 167.124 182.328 +0.09 -0.12    +0.151 HD
ATOM     13  C   UNL     1     153.539 166.155 180.800 -0.15 -0.19    +0.310 C 
ATOM     14  O   UNL     1     154.632 166.059 181.331 -0.25 +0.15    -0.252 OA
ENDBRANCH   1   2
BRANCH   1  18
ATOM     15  C   UNL     1     157.268 167.758 177.447 -0.44 -0.02    +0.037 A 
ATOM     16  C   UNL     1     156.171 168.216 178.179 -0.42 -0.01    +0.013 A 
ATOM     17  C   UNL     1     155.188 167.337 178.627 -0.45 -0.00    +0.006 A 
ATOM     18  C   UNL     1     155.220 165.994 178.248 -0.36 +0.01    -0.029 A 
ATOM     19  C   UNL     1     156.303 165.526 177.488 -0.38 -0.00    +0.006 A 
ATOM     20  C   UNL     1     157.323 166.403 177.093 -0.43 -0.01    +0.013 A 
BRANCH  15  22
ATOM     21  O   UNL     1     157.936 169.735 176.405 -0.20 +0.16    -0.270 OA
ATOM     22  C   UNL     1     158.313 168.697 176.939 -0.21 -0.12    +0.247 C 
ATOM     23  N   UNL     1     159.657 168.381 177.093 -0.28 +0.07    -0.297 N 
ATOM     24  C   UNL     1     160.248 167.089 177.419 -0.22 -0.02    +0.108 C 
ATOM     25  C   UNL     1     161.743 167.237 177.182 -0.48 -0.00    +0.020 C 
ATOM     26  C   UNL     1     161.874 168.477 176.314 -0.31 -0.00    +0.020 C 
ATOM     27  C   UNL     1     160.685 169.335 176.716 -0.45 -0.01    +0.108 C 
ENDBRANCH  15  22
ENDBRANCH   1  18
TORSDOF 3
TER
ENDMDL
