MODEL        1
USER    Run = 1
USER
USER    Estimated Free Energy of Binding    =  -4.90 kcal/mol  [=(1)+(2)+(3)-(4)]
USER
USER    (1) Final Intermolecular Energy     =  -6.10 kcal/mol
USER        vdW + Hbond + desolv Energy     =  -6.02 kcal/mol
USER        Electrostatic Energy            =  -0.08 kcal/mol
USER        Moving Ligand-Fixed Receptor    =  -6.10 kcal/mol
USER        Moving Ligand-Moving Receptor   =  +0.00 kcal/mol
USER    (2) Final Total Internal Energy     =  -1.69 kcal/mol
USER    (3) Torsional Free Energy           =  +1.19 kcal/mol
USER    (4) Unbound System's Energy         =  -1.69 kcal/mol
USER
USER
REMARK  Name = Z16394968
REMARK  4 active torsions:
REMARK  status: ('A' for Active; 'I' for Inactive)
REMARK    1  A    between atoms: C_7  and  C_8
REMARK    2  A    between atoms: C_8  and  N_9
REMARK    3  A    between atoms: C_10  and  C_12
REMARK    4  A    between atoms: C_12  and  N_13
REMARK                            x       y       z     vdW  Elec       q    Type
REMARK                         _______ _______ _______ _____ _____    ______ ____
USER                              x       y       z     vdW  Elec       q    Type
USER                           _______ _______ _______ _____ _____    ______ ____
ROOT
ATOM      1  C   UNL     1     164.099 173.000 175.383 -0.11 -0.00    +0.213 C 
ENDROOT
BRANCH   1   2
ATOM      2  N   UNL     1     164.169 173.327 173.982 -0.08 +0.02    -0.215 N 
ATOM      3  C   UNL     1     164.723 172.532 173.015 -0.03 -0.05    +0.247 C 
ATOM      4  O   UNL     1     165.101 171.378 173.149 -0.18 +0.09    -0.273 OA
ATOM      5  C   UNL     1     164.868 173.378 171.735 -0.16 -0.01    +0.113 C 
ATOM      6  C   UNL     1     164.289 172.691 170.505 -0.28 -0.01    +0.035 C 
ATOM      7  C   UNL     1     164.536 173.512 169.237 -0.38 -0.00    +0.002 C 
ATOM      8  C   UNL     1     166.017 173.838 169.056 -0.40 +0.00    +0.000 C 
ATOM      9  C   UNL     1     166.608 174.529 170.281 -0.26 +0.00    +0.002 C 
ATOM     10  C   UNL     1     166.354 173.731 171.558 -0.18 +0.00    +0.035 C 
ATOM     11  N   UNL     1     164.091 174.538 172.128 -0.08 +0.07    -0.285 N 
ATOM     12  H   UNL     1     163.950 175.374 171.576 +0.07 -0.05    +0.151 HD
ATOM     13  C   UNL     1     163.778 174.520 173.465 +0.01 -0.05    +0.310 C 
ATOM     14  O   UNL     1     163.245 175.438 174.066 -0.24 +0.01    -0.252 OA
ENDBRANCH   1   2
BRANCH   1  17
ATOM     15  N   UNL     1     162.536 171.201 174.812 -0.09 +0.02    -0.310 N 
ATOM     16  H   UNL     1     163.222 170.937 174.112 +0.09 -0.02    +0.149 HD
ATOM     17  C   UNL     1     162.754 172.316 175.596 -0.16 +0.02    +0.231 C 
ATOM     18  O   UNL     1     161.895 172.776 176.345 -0.25 -0.12    -0.274 OA
BRANCH  15  19
ATOM     19  C   UNL     1     161.311 170.433 174.897 -0.36 -0.00    +0.141 C 
BRANCH  19  22
ATOM     20 CL   UNL     1     163.492 168.295 174.142 -0.60 +0.02    -0.083 Cl
ATOM     21  C   UNL     1     162.430 168.211 175.502 -0.29 -0.01    +0.046 A 
ATOM     22  C   UNL     1     161.472 169.204 175.758 -0.38 +0.00    -0.012 A 
ATOM     23  C   UNL     1     160.629 169.048 176.876 -0.48 -0.00    +0.006 A 
ATOM     24  C   UNL     1     160.762 167.947 177.726 -0.39 -0.00    +0.000 A 
ATOM     25  C   UNL     1     161.729 166.980 177.469 -0.44 -0.00    +0.001 A 
ATOM     26  C   UNL     1     162.559 167.109 176.355 -0.37 -0.00    +0.020 A 
ENDBRANCH  19  22
ENDBRANCH  15  19
ENDBRANCH   1  17
TORSDOF 4
TER
ENDMDL
