MODEL        1
USER    Run = 1
USER
USER    Estimated Free Energy of Binding    =  -4.45 kcal/mol  [=(1)+(2)+(3)-(4)]
USER
USER    (1) Final Intermolecular Energy     =  -5.94 kcal/mol
USER        vdW + Hbond + desolv Energy     =  -5.67 kcal/mol
USER        Electrostatic Energy            =  -0.27 kcal/mol
USER        Moving Ligand-Fixed Receptor    =  -5.94 kcal/mol
USER        Moving Ligand-Moving Receptor   =  +0.00 kcal/mol
USER    (2) Final Total Internal Energy     =  -1.81 kcal/mol
USER    (3) Torsional Free Energy           =  +1.49 kcal/mol
USER    (4) Unbound System's Energy         =  -1.81 kcal/mol
USER
USER
REMARK  Name = Z16325693
REMARK  6 active torsions:
REMARK  status: ('A' for Active; 'I' for Inactive)
REMARK    1  A    between atoms: C_1  and  N_2
REMARK    2  A    between atoms: C_3  and  C_5
REMARK    3  A    between atoms: C_5  and  N_6
REMARK    4  A    between atoms: C_10  and  C_11
REMARK    5  A    between atoms: C_10  and  C_20
REMARK    6  A    between atoms: C_11  and  C_12
REMARK                            x       y       z     vdW  Elec       q    Type
REMARK                         _______ _______ _______ _____ _____    ______ ____
USER                              x       y       z     vdW  Elec       q    Type
USER                           _______ _______ _______ _____ _____    ______ ____
ROOT
ATOM      1  N   UNL     1     165.020 172.128 175.533 -0.03 +0.06    -0.215 N 
ATOM      2  C   UNL     1     164.171 172.263 174.464 -0.07 -0.04    +0.252 C 
ATOM      3  O   UNL     1     163.116 172.884 174.466 -0.03 -0.01    -0.272 OA
ATOM      4  C   UNL     1     164.772 171.506 173.245 -0.19 -0.04    +0.142 C 
ATOM      5  N   UNL     1     165.968 170.987 173.894 -0.11 +0.17    -0.281 N 
ATOM      6  H   UNL     1     166.701 170.481 173.416 -0.28 -0.21    +0.152 HD
ATOM      7  C   UNL     1     166.065 171.329 175.213 +0.04 -0.16    +0.310 C 
ATOM      8  O   UNL     1     166.949 170.950 175.963 -0.35 +0.19    -0.252 OA
ENDROOT
BRANCH   4   9
ATOM      9  C   UNL     1     165.119 172.488 172.122 -0.18 +0.00    -0.015 A 
ATOM     10  C   UNL     1     164.995 172.121 170.768 -0.27 -0.00    +0.006 A 
ATOM     11  C   UNL     1     165.239 173.039 169.743 -0.37 +0.00    +0.000 A 
ATOM     12  C   UNL     1     165.623 174.340 170.047 -0.29 +0.00    +0.000 A 
ATOM     13  C   UNL     1     165.808 174.710 171.374 -0.18 -0.00    +0.000 A 
ATOM     14  C   UNL     1     165.583 173.786 172.398 -0.12 -0.00    +0.006 A 
ENDBRANCH   4   9
BRANCH   1  15
ATOM     15  C   UNL     1     164.876 172.795 176.810 +0.02 -0.03    +0.213 C 
BRANCH  15  19
ATOM     16  C   UNL     1     165.285 176.479 175.957 -0.06 +0.02    +0.128 C 
ATOM     17  N   UNL     1     165.533 175.092 176.244 -0.04 -0.03    -0.317 N 
ATOM     18  H   UNL     1     166.435 174.684 175.999 +0.06 -0.02    +0.148 HD
ATOM     19  C   UNL     1     164.504 174.265 176.647 -0.13 +0.05    +0.231 C 
ATOM     20  O   UNL     1     163.347 174.656 176.758 -0.71 -0.21    -0.274 OA
ENDBRANCH  15  19
ENDBRANCH   1  15
BRANCH   4  21
ATOM     21  C   UNL     1     163.819 170.333 172.860 -0.26 -0.02    +0.075 C 
BRANCH  21  22
ATOM     22  C   UNL     1     163.154 169.621 174.031 -0.31 +0.01    -0.044 A 
ATOM     23  C   UNL     1     161.981 170.133 174.612 -0.35 -0.00    +0.003 A 
ATOM     24  C   UNL     1     161.349 169.454 175.657 -0.41 -0.00    +0.000 A 
ATOM     25  C   UNL     1     161.874 168.255 176.134 -0.35 -0.00    +0.000 A 
ATOM     26  C   UNL     1     163.047 167.749 175.584 -0.33 -0.00    +0.000 A 
ATOM     27  C   UNL     1     163.693 168.439 174.558 -0.38 -0.00    +0.003 A 
ENDBRANCH  21  22
ENDBRANCH   4  21
TORSDOF 5
TER
ENDMDL
