MODEL        1
USER    Run = 1
USER
USER    Estimated Free Energy of Binding    =  -4.54 kcal/mol  [=(1)+(2)+(3)-(4)]
USER
USER    (1) Final Intermolecular Energy     =  -6.03 kcal/mol
USER        vdW + Hbond + desolv Energy     =  -5.87 kcal/mol
USER        Electrostatic Energy            =  -0.17 kcal/mol
USER        Moving Ligand-Fixed Receptor    =  -6.03 kcal/mol
USER        Moving Ligand-Moving Receptor   =  +0.00 kcal/mol
USER    (2) Final Total Internal Energy     =  -1.58 kcal/mol
USER    (3) Torsional Free Energy           =  +1.49 kcal/mol
USER    (4) Unbound System's Energy         =  -1.58 kcal/mol
USER
USER
REMARK  Name = Z16336579
REMARK  5 active torsions:
REMARK  status: ('A' for Active; 'I' for Inactive)
REMARK    1  A    between atoms: C_5  and  C_6
REMARK    2  A    between atoms: C_6  and  C_7
REMARK    3  A    between atoms: C_7  and  N_8
REMARK    4  A    between atoms: C_9  and  C_11
REMARK    5  A    between atoms: C_11  and  N_12
REMARK                            x       y       z     vdW  Elec       q    Type
REMARK                         _______ _______ _______ _____ _____    ______ ____
USER                              x       y       z     vdW  Elec       q    Type
USER                           _______ _______ _______ _____ _____    ______ ____
ROOT
ATOM      1  N   UNL     1     164.511 173.284 173.815 -0.08 +0.03    -0.215 N 
ATOM      2  C   UNL     1     164.948 173.120 172.519 -0.04 -0.04    +0.252 C 
ATOM      3  O   UNL     1     165.637 172.198 172.105 -0.16 +0.03    -0.272 OA
ATOM      4  C   UNL     1     164.626 174.425 171.747 -0.15 -0.03    +0.144 C 
ATOM      5  C   UNL     1     165.921 175.222 171.658 -0.13 -0.00    +0.026 A 
ATOM      6  C   UNL     1     166.586 175.328 170.431 -0.16 +0.01    +0.126 A 
ATOM      7  C   UNL     1     167.850 175.919 170.356 -0.06 +0.00    +0.046 A 
ATOM      8  C   UNL     1     168.485 176.380 171.508 -0.11 -0.00    +0.004 A 
ATOM      9  C   UNL     1     167.836 176.294 172.733 -0.05 -0.00    +0.001 A 
ATOM     10  O   UNL     1     166.062 174.896 169.244 -0.15 -0.03    -0.491 OA
ATOM     11  C   UNL     1     165.078 173.869 169.356 -0.17 -0.03    +0.232 C 
ATOM     12  C   UNL     1     166.561 175.736 172.806 -0.04 -0.00    +0.010 A 
ATOM     13  C   UNL     1     164.004 174.204 170.375 -0.18 -0.02    +0.081 C 
ATOM     14  N   UNL     1     163.664 174.998 172.670 -0.09 +0.10    -0.281 N 
ATOM     15  H   UNL     1     163.321 175.947 172.595 -0.25 -0.14    +0.152 HD
ATOM     16  C   UNL     1     163.755 174.412 173.912 -0.02 -0.02    +0.310 C 
ATOM     17  O   UNL     1     163.324 174.909 174.941 -0.44 -0.14    -0.252 OA
ENDROOT
BRANCH   1  18
ATOM     18  C   UNL     1     165.284 172.807 174.937 -0.04 -0.05    +0.213 C 
BRANCH  18  21
ATOM     19  N   UNL     1     164.785 170.559 174.135 -0.10 +0.11    -0.314 N 
ATOM     20  H   UNL     1     164.315 171.021 173.359 +0.10 -0.04    +0.149 HD
ATOM     21  C   UNL     1     165.624 171.333 174.912 -0.04 -0.10    +0.231 C 
ATOM     22  O   UNL     1     166.568 170.865 175.550 -0.29 +0.19    -0.274 OA
BRANCH  19  23
ATOM     23  C   UNL     1     164.919 169.111 174.095 -0.35 -0.04    +0.109 C 
BRANCH  23  24
ATOM     24  C   UNL     1     163.585 168.414 173.787 -0.44 -0.01    +0.054 C 
BRANCH  24  29
ATOM     25  F   UNL     1     159.605 169.246 177.695 -0.13 +0.06    -0.205 F 
ATOM     26  C   UNL     1     160.564 169.055 176.778 -0.38 -0.02    +0.123 A 
ATOM     27  C   UNL     1     161.322 167.890 176.813 -0.41 -0.00    +0.038 A 
ATOM     28  C   UNL     1     162.314 167.683 175.852 -0.37 -0.00    +0.006 A 
ATOM     29  C   UNL     1     162.540 168.641 174.852 -0.31 +0.01    -0.046 A 
ATOM     30  C   UNL     1     161.771 169.816 174.841 -0.39 -0.00    +0.006 A 
ATOM     31  C   UNL     1     160.783 170.022 175.805 -0.44 -0.00    +0.038 A 
ENDBRANCH  24  29
ENDBRANCH  23  24
ENDBRANCH  19  23
ENDBRANCH  18  21
ENDBRANCH   1  18
TORSDOF 5
TER
ENDMDL
