MODEL        1
USER    Run = 1
USER
USER    Estimated Free Energy of Binding    =  -4.10 kcal/mol  [=(1)+(2)+(3)-(4)]
USER
USER    (1) Final Intermolecular Energy     =  -5.89 kcal/mol
USER        vdW + Hbond + desolv Energy     =  -5.73 kcal/mol
USER        Electrostatic Energy            =  -0.16 kcal/mol
USER        Moving Ligand-Fixed Receptor    =  -5.89 kcal/mol
USER        Moving Ligand-Moving Receptor   =  +0.00 kcal/mol
USER    (2) Final Total Internal Energy     =  -2.24 kcal/mol
USER    (3) Torsional Free Energy           =  +1.79 kcal/mol
USER    (4) Unbound System's Energy         =  -2.24 kcal/mol
USER
USER
REMARK  Name = Z16394376
REMARK  7 active torsions:
REMARK  status: ('A' for Active; 'I' for Inactive)
REMARK    1  A    between atoms: C_1  and  C_2
REMARK    2  A    between atoms: C_2  and  O_3
REMARK    3  A    between atoms: O_3  and  C_4
REMARK    4  A    between atoms: C_4  and  C_6
REMARK    5  A    between atoms: C_7  and  N_8
REMARK    6  A    between atoms: C_9  and  C_11
REMARK    7  A    between atoms: C_11  and  N_12
REMARK                            x       y       z     vdW  Elec       q    Type
REMARK                         _______ _______ _______ _____ _____    ______ ____
USER                              x       y       z     vdW  Elec       q    Type
USER                           _______ _______ _______ _____ _____    ______ ____
ROOT
ATOM      1  N   UNL     1     165.615 172.633 172.736 -0.05 +0.06    -0.278 N 
ATOM      2  H   UNL     1     166.126 172.141 173.463 +0.09 -0.06    +0.155 HD
ATOM      3  C   UNL     1     165.545 172.031 171.484 -0.13 -0.00    +0.235 C 
ATOM      4  O   UNL     1     165.551 172.646 170.420 -0.37 -0.06    -0.274 OA
ENDROOT
BRANCH   1  13
ATOM      5  C   UNL     1     164.854 174.893 173.625 -0.07 -0.02    +0.091 A 
ATOM      6  C   UNL     1     165.068 176.255 173.175 -0.08 +0.01    -0.021 A 
ATOM      7  C   UNL     1     166.002 176.323 172.158 -0.09 +0.00    -0.004 A 
ATOM      8  C   UNL     1     166.450 177.585 171.484 -0.13 -0.01    +0.043 C 
ATOM      9  C   UNL     1     166.084 178.812 172.335 -0.08 -0.00    +0.005 C 
ATOM     10  C   UNL     1     164.649 178.725 172.866 -0.02 -0.00    +0.005 C 
ATOM     11  S   UNL     1     166.621 174.796 171.739 -0.22 +0.00    -0.077 S 
ATOM     12  C   UNL     1     164.456 177.498 173.767 -0.05 -0.01    +0.037 C 
ATOM     13  C   UNL     1     165.567 174.015 172.821 -0.03 -0.02    +0.086 A 
BRANCH   5  14
ATOM     14  C   UNL     1     164.100 174.544 174.836 -0.02 +0.04    +0.342 C 
ATOM     15  O   UNL     1     163.468 175.361 175.494 -0.56 -0.20    -0.245 OA
BRANCH  14  16
ATOM     16  O   UNL     1     164.371 173.278 175.272 -0.01 +0.02    -0.461 OA
BRANCH  16  18
ATOM     17  C   UNL     1     166.004 172.777 176.914 -0.32 -0.01    +0.048 C 
ATOM     18  C   UNL     1     164.548 173.144 176.684 -0.13 -0.00    +0.229 C 
ENDBRANCH  16  18
ENDBRANCH  14  16
ENDBRANCH   5  14
ENDBRANCH   1  13
BRANCH   3  19
ATOM     19  C   UNL     1     165.565 170.505 171.526 +0.01 -0.04    +0.214 C 
BRANCH  19  20
ATOM     20  N   UNL     1     164.495 170.020 172.368 -0.22 +0.06    -0.215 N 
ATOM     21  C   UNL     1     164.451 170.130 173.730 -0.19 -0.08    +0.247 C 
ATOM     22  O   UNL     1     165.313 170.651 174.420 -0.21 +0.13    -0.273 OA
ATOM     23  C   UNL     1     163.190 169.403 174.248 -0.31 -0.02    +0.113 C 
ATOM     24  C   UNL     1     162.256 170.288 175.075 -0.32 -0.00    +0.035 C 
ATOM     25  C   UNL     1     161.053 169.490 175.596 -0.49 -0.00    +0.002 C 
ATOM     26  C   UNL     1     161.482 168.238 176.358 -0.49 -0.00    +0.000 C 
ATOM     27  C   UNL     1     162.440 167.365 175.552 -0.39 -0.00    +0.002 C 
ATOM     28  C   UNL     1     163.631 168.164 175.030 -0.32 -0.01    +0.035 C 
ATOM     29  N   UNL     1     162.594 169.056 172.978 -0.19 +0.05    -0.285 N 
ATOM     30  H   UNL     1     161.717 168.571 172.836 +0.11 -0.01    +0.151 HD
ATOM     31  C   UNL     1     163.371 169.408 171.905 -0.12 -0.08    +0.310 C 
ATOM     32  O   UNL     1     163.053 169.211 170.746 -0.33 +0.11    -0.252 OA
ENDBRANCH  19  20
ENDBRANCH   3  19
TORSDOF 6
TER
ENDMDL
