MODEL        1
USER    Run = 1
USER
USER    Estimated Free Energy of Binding    =  -5.28 kcal/mol  [=(1)+(2)+(3)-(4)]
USER
USER    (1) Final Intermolecular Energy     =  -7.66 kcal/mol
USER        vdW + Hbond + desolv Energy     =  -7.81 kcal/mol
USER        Electrostatic Energy            =  +0.14 kcal/mol
USER        Moving Ligand-Fixed Receptor    =  -7.66 kcal/mol
USER        Moving Ligand-Moving Receptor   =  +0.00 kcal/mol
USER    (2) Final Total Internal Energy     =  -1.24 kcal/mol
USER    (3) Torsional Free Energy           =  +2.39 kcal/mol
USER    (4) Unbound System's Energy         =  -1.24 kcal/mol
USER
USER
REMARK  Name = Z16318455
REMARK  11 active torsions:
REMARK  status: ('A' for Active; 'I' for Inactive)
REMARK    1  A    between atoms: C_1  and  C_2
REMARK    2  A    between atoms: C_2  and  N_3
REMARK    3  A    between atoms: N_3  and  C_4
REMARK    4  A    between atoms: C_4  and  C_5
REMARK    5  A    between atoms: C_6  and  C_8
REMARK    6  A    between atoms: C_8  and  O_9
REMARK    7  A    between atoms: O_9  and  C_10
REMARK    8  A    between atoms: C_13  and  N_16
REMARK    9  A    between atoms: N_16  and  C_17
REMARK   10  A    between atoms: N_16  and  S_18
REMARK   11  A    between atoms: S_18  and  C_21
REMARK                            x       y       z     vdW  Elec       q    Type
REMARK                         _______ _______ _______ _____ _____    ______ ____
USER                              x       y       z     vdW  Elec       q    Type
USER                           _______ _______ _______ _____ _____    ______ ____
ROOT
ATOM      1  C   UNL     1     164.399 170.148 173.759 -0.22 -0.04    +0.121 A 
ATOM      2  C   UNL     1     163.672 171.211 174.299 -0.15 -0.01    +0.047 A 
ATOM      3  C   UNL     1     162.411 170.998 174.860 -0.22 -0.00    +0.028 A 
ATOM      4  C   UNL     1     161.881 169.708 174.916 -0.34 -0.00    +0.051 A 
ATOM      5  C   UNL     1     162.625 168.637 174.421 -0.33 -0.00    +0.028 A 
ATOM      6  C   UNL     1     163.877 168.857 173.833 -0.37 -0.01    +0.047 A 
ENDROOT
BRANCH   4   7
ATOM      7  N   UNL     1     160.599 169.453 175.506 -0.29 +0.00    -0.206 N 
ATOM      8  C   UNL     1     159.498 170.367 175.167 -0.29 -0.00    +0.157 C 
BRANCH   7   9
ATOM      9  S   UNL     1     160.560 168.713 177.044 -0.65 -0.01    +0.074 S 
ATOM     10  O   UNL     1     160.750 169.732 178.055 -0.28 +0.05    -0.150 OA
ATOM     11  O   UNL     1     161.417 167.541 177.005 -0.46 +0.02    -0.150 OA
BRANCH   9  12
ATOM     12  C   UNL     1     158.878 168.132 177.196 -0.33 -0.04    +0.109 A 
ATOM     13  C   UNL     1     158.561 166.844 176.740 -0.19 -0.01    +0.031 A 
ATOM     14  C   UNL     1     157.263 166.358 176.889 -0.41 -0.02    +0.040 A 
ATOM     15  C   UNL     1     156.290 167.168 177.465 -0.38 -0.07    +0.123 A 
ATOM     16  F   UNL     1     155.050 166.691 177.632 -0.06 +0.11    -0.205 F 
ATOM     17  C   UNL     1     156.586 168.467 177.874 -0.34 -0.03    +0.040 A 
ATOM     18  C   UNL     1     157.887 168.961 177.732 -0.36 -0.02    +0.031 A 
ENDBRANCH   9  12
ENDBRANCH   7   9
ENDBRANCH   4   7
BRANCH   1  19
ATOM     19  O   UNL     1     165.620 170.483 173.244 -0.06 +0.26    -0.483 OA
BRANCH  19  20
ATOM     20  C   UNL     1     165.650 171.604 172.373 -0.10 -0.07    +0.324 C 
BRANCH  20  22
ATOM     21  N   UNL     1     164.516 172.470 170.267 -0.13 +0.04    -0.299 N 
ATOM     22  C   UNL     1     164.724 171.412 171.164 -0.14 -0.04    +0.253 C 
ATOM     23  O   UNL     1     164.131 170.336 171.029 -0.20 +0.08    -0.272 OA
BRANCH  21  25
ATOM     24  C   UNL     1     162.513 173.217 168.829 -0.48 -0.01    +0.024 C 
ATOM     25  C   UNL     1     163.573 172.185 169.178 -0.36 -0.03    +0.104 C 
ENDBRANCH  21  25
BRANCH  21  26
ATOM     26  C   UNL     1     165.111 173.801 170.426 -0.27 -0.00    +0.104 C 
ATOM     27  C   UNL     1     166.007 174.218 169.270 -0.39 +0.00    +0.024 C 
ENDBRANCH  21  26
ENDBRANCH  20  22
ENDBRANCH  19  20
ENDBRANCH   1  19
TORSDOF 8
TER
ENDMDL
