MODEL        1
USER    Run = 1
USER
USER    Estimated Free Energy of Binding    =  -3.12 kcal/mol  [=(1)+(2)+(3)-(4)]
USER
USER    (1) Final Intermolecular Energy     =  -3.71 kcal/mol
USER        vdW + Hbond + desolv Energy     =  -3.70 kcal/mol
USER        Electrostatic Energy            =  -0.01 kcal/mol
USER        Moving Ligand-Fixed Receptor    =  -3.71 kcal/mol
USER        Moving Ligand-Moving Receptor   =  +0.00 kcal/mol
USER    (2) Final Total Internal Energy     =  -1.76 kcal/mol
USER    (3) Torsional Free Energy           =  +0.60 kcal/mol
USER    (4) Unbound System's Energy         =  -1.76 kcal/mol
USER
USER
REMARK  Name = Z16336680
REMARK  2 active torsions:
REMARK  status: ('A' for Active; 'I' for Inactive)
REMARK    1  A    between atoms: C_2  and  C_3
REMARK    2  A    between atoms: C_3  and  N_4
REMARK                            x       y       z     vdW  Elec       q    Type
REMARK                         _______ _______ _______ _____ _____    ______ ____
USER                              x       y       z     vdW  Elec       q    Type
USER                           _______ _______ _______ _____ _____    ______ ____
ROOT
ATOM      1  N   UNL     1     150.475 175.944 181.849 -0.03 +0.08    -0.215 N 
ATOM      2  C   UNL     1     150.958 177.190 182.139 -0.01 -0.08    +0.252 C 
ATOM      3  O   UNL     1     150.875 178.181 181.427 +0.00 +0.07    -0.272 OA
ATOM      4  C   UNL     1     151.818 177.055 183.423 -0.14 -0.06    +0.144 C 
ATOM      5  C   UNL     1     153.269 177.105 182.977 -0.18 -0.00    +0.026 A 
ATOM      6  C   UNL     1     154.027 178.249 183.245 -0.09 -0.02    +0.126 A 
ATOM      7  C   UNL     1     155.304 178.395 182.699 -0.06 -0.00    +0.046 A 
ATOM      8  C   UNL     1     155.824 177.422 181.846 -0.10 -0.00    +0.004 A 
ATOM      9  C   UNL     1     155.086 176.277 181.571 -0.19 +0.00    +0.001 A 
ATOM     10  O   UNL     1     153.596 179.273 184.041 -0.01 +0.12    -0.491 OA
ATOM     11  C   UNL     1     152.178 179.404 184.151 -0.04 -0.07    +0.232 C 
ATOM     12  C   UNL     1     153.825 176.112 182.142 -0.08 +0.00    +0.010 A 
ATOM     13  C   UNL     1     151.503 178.089 184.488 -0.15 -0.04    +0.081 C 
ATOM     14  N   UNL     1     151.385 175.743 183.860 -0.13 +0.21    -0.281 N 
ATOM     15  H   UNL     1     151.736 175.249 184.670 -0.50 -0.25    +0.152 HD
ATOM     16  C   UNL     1     150.658 175.093 182.893 -0.05 -0.17    +0.310 C 
ATOM     17  O   UNL     1     150.306 173.928 182.963 -0.09 +0.19    -0.252 OA
ENDROOT
BRANCH   1  18
ATOM     18  C   UNL     1     150.072 175.509 180.538 -0.02 -0.08    +0.214 C 
BRANCH  18  20
ATOM     19  O   UNL     1     151.362 173.617 179.890 -0.12 +0.16    -0.274 OA
ATOM     20  C   UNL     1     151.222 174.838 179.797 -0.07 -0.12    +0.238 C 
ATOM     21  N   UNL     1     152.035 175.691 179.029 -0.06 +0.14    -0.260 N 
ATOM     22  C   UNL     1     153.363 175.332 178.612 -0.17 -0.04    +0.058 A 
ATOM     23  C   UNL     1     154.112 176.220 177.821 -0.20 -0.02    +0.055 A 
ATOM     24  C   UNL     1     155.440 175.953 177.476 -0.20 -0.00    +0.025 A 
ATOM     25  C   UNL     1     156.041 174.772 177.901 -0.32 -0.00    +0.002 A 
ATOM     26  C   UNL     1     155.309 173.857 178.646 -0.32 -0.00    +0.002 A 
ATOM     27  N   UNL     1     153.551 177.399 177.318 -0.09 +0.11    -0.283 N 
ATOM     28  H   UNL     1     154.055 177.968 176.648 +0.05 -0.04    +0.155 HD
ATOM     29  C   UNL     1     152.295 177.823 177.640 -0.07 -0.10    +0.235 C 
ATOM     30  O   UNL     1     151.818 178.842 177.148 -0.04 +0.10    -0.274 OA
ATOM     31  C   UNL     1     153.985 174.137 178.999 -0.17 -0.02    +0.025 A 
ATOM     32  C   UNL     1     151.625 177.078 178.776 -0.03 -0.09    +0.209 C 
ENDBRANCH  18  20
ENDBRANCH   1  18
TORSDOF 2
TER
ENDMDL
