MODEL        1
USER    Run = 1
USER
USER    Estimated Free Energy of Binding    =  -4.61 kcal/mol  [=(1)+(2)+(3)-(4)]
USER
USER    (1) Final Intermolecular Energy     =  -6.10 kcal/mol
USER        vdW + Hbond + desolv Energy     =  -6.25 kcal/mol
USER        Electrostatic Energy            =  +0.15 kcal/mol
USER        Moving Ligand-Fixed Receptor    =  -6.10 kcal/mol
USER        Moving Ligand-Moving Receptor   =  +0.00 kcal/mol
USER    (2) Final Total Internal Energy     =  -1.18 kcal/mol
USER    (3) Torsional Free Energy           =  +1.49 kcal/mol
USER    (4) Unbound System's Energy         =  -1.18 kcal/mol
USER
USER
REMARK  Name = Z16336170
REMARK  8 active torsions:
REMARK  status: ('A' for Active; 'I' for Inactive)
REMARK    1  A    between atoms: C_1  and  O_2
REMARK    2  A    between atoms: O_2  and  C_3
REMARK    3  A    between atoms: C_6  and  C_11
REMARK    4  A    between atoms: C_8  and  O_9
REMARK    5  A    between atoms: O_9  and  C_10
REMARK    6  A    between atoms: C_11  and  C_12
REMARK    7  A    between atoms: N_16  and  C_17
REMARK    8  A    between atoms: C_17  and  C_18
REMARK                            x       y       z     vdW  Elec       q    Type
REMARK                         _______ _______ _______ _____ _____    ______ ____
USER                              x       y       z     vdW  Elec       q    Type
USER                           _______ _______ _______ _____ _____    ______ ____
ROOT
ATOM      1  C   UNL     1     163.025 168.772 173.810 -0.34 -0.02    +0.135 C 
ATOM      2  C   UNL     1     164.072 169.876 173.554 -0.21 -0.07    +0.251 C 
ATOM      3  O   UNL     1     164.692 170.498 174.404 -0.18 +0.10    -0.272 OA
ATOM      4  N   UNL     1     164.286 169.938 172.200 -0.22 +0.06    -0.219 N 
ATOM      5  C   UNL     1     163.249 169.336 171.557 -0.07 -0.10    +0.310 C 
ATOM      6  O   UNL     1     163.041 169.282 170.357 -0.32 +0.12    -0.252 OA
ATOM      7  N   UNL     1     162.411 168.780 172.502 -0.18 +0.05    -0.281 N 
ATOM      8  H   UNL     1     161.688 168.136 172.199 +0.10 -0.02    +0.152 HD
ATOM      9  C   UNL     1     163.782 167.437 173.975 -0.49 -0.01    +0.047 C 
ENDROOT
BRANCH   1  13
ATOM     10  C   UNL     1     159.937 168.910 176.863 -0.35 -0.03    +0.162 A 
ATOM     11  C   UNL     1     160.928 167.926 176.902 -0.32 -0.02    +0.162 A 
ATOM     12  C   UNL     1     161.984 167.984 175.975 -0.33 -0.00    +0.055 A 
ATOM     13  C   UNL     1     162.065 168.970 174.976 -0.31 +0.00    -0.012 A 
ATOM     14  C   UNL     1     161.140 170.015 175.038 -0.43 -0.00    +0.010 A 
ATOM     15  C   UNL     1     160.096 169.989 175.978 -0.35 -0.00    +0.050 A 
BRANCH  10  17
ATOM     16  C   UNL     1     157.909 167.775 177.307 -0.24 -0.14    +0.277 C 
ATOM     17  O   UNL     1     158.839 168.795 177.674 -0.18 +0.18    -0.491 OA
ENDBRANCH  10  17
BRANCH  11  18
ATOM     18  O   UNL     1     160.991 166.797 177.675 -0.11 +0.09    -0.491 OA
ATOM     19  C   UNL     1     162.248 166.390 178.190 -0.14 -0.05    +0.277 C 
ENDBRANCH  11  18
ENDBRANCH   1  13
BRANCH   4  20
ATOM     20  C   UNL     1     165.359 170.665 171.542 -0.14 -0.03    +0.157 C 
BRANCH  20  21
ATOM     21  C   UNL     1     165.115 172.160 171.497 -0.22 -0.00    +0.024 A 
ATOM     22  C   UNL     1     164.514 172.822 170.417 -0.26 -0.01    +0.048 A 
ATOM     23 CL   UNL     1     163.736 171.965 169.137 -0.52 +0.02    -0.083 Cl
ATOM     24  C   UNL     1     164.492 174.224 170.353 -0.24 -0.00    +0.020 A 
ATOM     25  C   UNL     1     165.014 174.986 171.396 -0.16 -0.00    +0.004 A 
ATOM     26  C   UNL     1     165.500 174.344 172.529 -0.09 -0.01    +0.039 A 
ATOM     27  C   UNL     1     165.542 172.951 172.571 -0.06 -0.02    +0.130 A 
ATOM     28  F   UNL     1     166.001 172.367 173.688 +0.09 +0.07    -0.205 F 
ENDBRANCH  20  21
ENDBRANCH   4  20
TORSDOF 5
TER
ENDMDL
