MODEL        1
USER    Run = 1
USER
USER    Estimated Free Energy of Binding    =  -5.39 kcal/mol  [=(1)+(2)+(3)-(4)]
USER
USER    (1) Final Intermolecular Energy     =  -5.98 kcal/mol
USER        vdW + Hbond + desolv Energy     =  -5.99 kcal/mol
USER        Electrostatic Energy            =  +0.01 kcal/mol
USER        Moving Ligand-Fixed Receptor    =  -5.98 kcal/mol
USER        Moving Ligand-Moving Receptor   =  +0.00 kcal/mol
USER    (2) Final Total Internal Energy     =  -0.41 kcal/mol
USER    (3) Torsional Free Energy           =  +0.60 kcal/mol
USER    (4) Unbound System's Energy         =  -0.41 kcal/mol
USER
USER
REMARK  Name = Z16396252
REMARK  2 active torsions:
REMARK  status: ('A' for Active; 'I' for Inactive)
REMARK    1  A    between atoms: C_6  and  C_7
REMARK    2  A    between atoms: C_7  and  N_8
REMARK                            x       y       z     vdW  Elec       q    Type
REMARK                         _______ _______ _______ _____ _____    ______ ____
USER                              x       y       z     vdW  Elec       q    Type
USER                           _______ _______ _______ _____ _____    ______ ____
ROOT
ATOM      1  N   UNL     1     160.944 169.140 176.204 -0.29 +0.02    -0.220 N 
ATOM      2  C   UNL     1     162.089 168.761 175.557 -0.15 -0.02    +0.247 C 
ATOM      3  O   UNL     1     162.921 167.959 175.957 -0.23 +0.04    -0.273 OA
ATOM      4  C   UNL     1     162.172 169.532 174.227 -0.33 -0.01    +0.113 C 
ATOM      5  C   UNL     1     163.277 170.587 174.243 -0.26 -0.01    +0.035 C 
ATOM      6  C   UNL     1     164.453 169.901 173.568 -0.40 -0.00    +0.003 C 
ATOM      7  C   UNL     1     163.811 169.056 172.479 -0.39 -0.00    +0.003 C 
ATOM      8  C   UNL     1     162.460 168.610 173.040 -0.21 -0.01    +0.035 C 
ATOM      9  N   UNL     1     160.864 170.130 174.217 -0.20 -0.01    -0.285 N 
ATOM     10  H   UNL     1     160.493 170.748 173.506 +0.16 +0.01    +0.151 HD
ATOM     11  C   UNL     1     160.195 169.947 175.406 -0.23 -0.01    +0.310 C 
ATOM     12  O   UNL     1     159.102 170.430 175.650 -0.27 +0.03    -0.252 OA
ENDROOT
BRANCH   1  13
ATOM     13  C   UNL     1     160.496 168.609 177.474 -0.43 -0.04    +0.153 C 
BRANCH  13  17
ATOM     14 BR   UNL     1     157.017 164.658 176.365 -0.67 +0.03    -0.050 Br
ATOM     15  C   UNL     1     157.423 166.417 176.929 -0.42 -0.01    +0.018 A 
ATOM     16  C   UNL     1     158.757 166.820 177.032 -0.22 -0.01    +0.020 A 
ATOM     17  C   UNL     1     159.065 168.131 177.425 -0.34 +0.01    -0.029 A 
ATOM     18  C   UNL     1     158.014 169.012 177.728 -0.34 -0.00    +0.005 A 
ATOM     19  C   UNL     1     156.685 168.600 177.628 -0.32 -0.00    +0.001 A 
ATOM     20  C   UNL     1     156.387 167.301 177.221 -0.43 -0.01    +0.015 A 
ENDBRANCH  13  17
ENDBRANCH   1  13
TORSDOF 2
TER
ENDMDL
