MODEL        1
USER    Run = 1
USER
USER    Estimated Free Energy of Binding    =  -5.33 kcal/mol  [=(1)+(2)+(3)-(4)]
USER
USER    (1) Final Intermolecular Energy     =  -6.22 kcal/mol
USER        vdW + Hbond + desolv Energy     =  -6.09 kcal/mol
USER        Electrostatic Energy            =  -0.13 kcal/mol
USER        Moving Ligand-Fixed Receptor    =  -6.22 kcal/mol
USER        Moving Ligand-Moving Receptor   =  +0.00 kcal/mol
USER    (2) Final Total Internal Energy     =  -0.60 kcal/mol
USER    (3) Torsional Free Energy           =  +0.89 kcal/mol
USER    (4) Unbound System's Energy         =  -0.60 kcal/mol
USER
USER
REMARK  Name = Z16382785
REMARK  3 active torsions:
REMARK  status: ('A' for Active; 'I' for Inactive)
REMARK    1  A    between atoms: C_6  and  S_7
REMARK    2  A    between atoms: S_7  and  C_8
REMARK    3  A    between atoms: N_13  and  C_17
REMARK                            x       y       z     vdW  Elec       q    Type
REMARK                         _______ _______ _______ _____ _____    ______ ____
USER                              x       y       z     vdW  Elec       q    Type
USER                           _______ _______ _______ _____ _____    ______ ____
ROOT
ATOM      1  C   UNL     1     154.597 166.377 178.620 -0.31 -0.07    +0.112 A 
ATOM      2  C   UNL     1     155.849 166.244 178.030 -0.36 -0.03    +0.071 A 
ATOM      3  C   UNL     1     156.644 167.379 177.966 -0.32 -0.09    +0.167 A 
ATOM      4  N   UNL     1     157.821 166.994 177.321 -0.29 +0.09    -0.214 N 
ATOM      5  N   UNL     1     157.777 165.670 176.969 -0.28 +0.07    -0.172 NA
ATOM      6  N   UNL     1     156.291 168.594 178.441 -0.24 +0.14    -0.216 NA
ATOM      7  C   UNL     1     155.064 168.600 178.988 -0.05 -0.20    +0.224 A 
ATOM      8  C   UNL     1     156.595 165.240 177.398 -0.25 -0.07    +0.147 A 
ATOM      9  N   UNL     1     154.201 167.573 179.098 -0.27 +0.20    -0.228 NA
ENDROOT
BRANCH   4  10
ATOM     10  C   UNL     1     158.970 167.767 176.971 -0.35 -0.02    +0.068 A 
ATOM     11  C   UNL     1     160.246 167.240 177.240 -0.27 -0.01    +0.028 A 
ATOM     12  C   UNL     1     161.398 167.938 176.876 -0.43 -0.00    +0.002 A 
ATOM     13  C   UNL     1     161.290 169.172 176.244 -0.40 -0.00    +0.000 A 
ATOM     14  C   UNL     1     160.030 169.715 175.992 -0.44 -0.00    +0.002 A 
ATOM     15  C   UNL     1     158.871 169.019 176.355 -0.28 -0.01    +0.028 A 
ENDBRANCH   4  10
BRANCH   1  16
ATOM     16  S   UNL     1     153.511 164.983 178.661 -0.42 +0.04    -0.090 S 
BRANCH  16  19
ATOM     17  O   UNL     1     151.579 165.331 181.313 -0.29 +0.09    -0.250 OA
ATOM     18  C   UNL     1     151.237 165.213 180.146 -0.16 -0.10    +0.321 C 
ATOM     19  C   UNL     1     151.924 165.830 178.952 -0.20 -0.10    +0.164 C 
ATOM     20  C   UNL     1     150.905 165.610 177.851 -0.22 -0.04    +0.067 C 
ATOM     21  C   UNL     1     150.099 164.433 178.330 -0.16 -0.03    +0.234 C 
ATOM     22  O   UNL     1     150.155 164.476 179.752 -0.09 -0.01    -0.464 OA
ENDBRANCH  16  19
ENDBRANCH   1  16
TORSDOF 3
TER
ENDMDL
