MODEL        1
USER    Run = 1
USER
USER    Estimated Free Energy of Binding    =  -4.81 kcal/mol  [=(1)+(2)+(3)-(4)]
USER
USER    (1) Final Intermolecular Energy     =  -6.30 kcal/mol
USER        vdW + Hbond + desolv Energy     =  -6.24 kcal/mol
USER        Electrostatic Energy            =  -0.06 kcal/mol
USER        Moving Ligand-Fixed Receptor    =  -6.30 kcal/mol
USER        Moving Ligand-Moving Receptor   =  +0.00 kcal/mol
USER    (2) Final Total Internal Energy     =  -1.36 kcal/mol
USER    (3) Torsional Free Energy           =  +1.49 kcal/mol
USER    (4) Unbound System's Energy         =  -1.36 kcal/mol
USER
USER
REMARK  Name = Z16305970
REMARK  5 active torsions:
REMARK  status: ('A' for Active; 'I' for Inactive)
REMARK    1  A    between atoms: C_7  and  C_8
REMARK    2  A    between atoms: C_11  and  S_12
REMARK    3  A    between atoms: S_12  and  C_13
REMARK    4  A    between atoms: C_13  and  C_14
REMARK    5  A    between atoms: N_24  and  C_25
REMARK                            x       y       z     vdW  Elec       q    Type
REMARK                         _______ _______ _______ _____ _____    ______ ____
USER                              x       y       z     vdW  Elec       q    Type
USER                           _______ _______ _______ _____ _____    ______ ____
ROOT
ATOM      1  C   UNL     1     162.771 169.222 173.593 -0.23 -0.03    +0.168 A 
ATOM      2  N   UNL     1     163.839 170.099 173.410 -0.13 +0.07    -0.299 N 
ATOM      3  C   UNL     1     164.169 170.015 172.078 -0.15 -0.05    +0.193 A 
ATOM      4  N   UNL     1     163.427 169.100 171.497 -0.32 +0.04    -0.122 NA
ATOM      5  N   UNL     1     162.569 168.590 172.444 -0.33 +0.03    -0.128 NA
ENDROOT
BRANCH   1   8
ATOM      6  F   UNL     1     160.546 170.853 174.497 -0.11 -0.01    -0.205 F 
ATOM      7  C   UNL     1     160.982 169.848 175.267 -0.33 -0.00    +0.134 A 
ATOM      8  C   UNL     1     161.992 168.986 174.821 -0.25 -0.00    +0.054 A 
ATOM      9  C   UNL     1     162.244 167.846 175.601 -0.35 -0.00    +0.014 A 
ATOM     10  C   UNL     1     161.595 167.655 176.830 -0.42 -0.00    +0.001 A 
ATOM     11  C   UNL     1     160.693 168.605 177.305 -0.48 -0.00    +0.003 A 
ATOM     12  C   UNL     1     160.374 169.698 176.511 -0.39 -0.00    +0.039 A 
ENDBRANCH   1   8
BRANCH   2  13
ATOM     13  C   UNL     1     164.430 170.911 174.466 -0.16 -0.03    +0.091 C 
ATOM     14  C   UNL     1     163.757 172.227 174.829 -0.23 -0.00    +0.027 C 
ATOM     15  C   UNL     1     165.185 172.217 174.400 -0.21 -0.01    +0.027 C 
ENDBRANCH   2  13
BRANCH   3  16
ATOM     16  S   UNL     1     165.448 170.879 171.303 -0.28 +0.01    -0.074 S 
BRANCH  16  17
ATOM     17  C   UNL     1     164.578 172.185 170.423 -0.20 -0.02    +0.210 C 
BRANCH  17  18
ATOM     18  C   UNL     1     165.185 173.568 170.582 -0.09 -0.00    +0.346 C 
ATOM     19  N   UNL     1     164.736 174.235 171.698 -0.22 +0.01    -0.044 NA
ATOM     20  C   UNL     1     165.295 175.360 171.977 -0.08 -0.04    +0.178 C 
ATOM     21  C   UNL     1     164.798 176.249 173.045 -0.10 -0.02    +0.059 C 
ATOM     22  C   UNL     1     165.230 177.490 172.815 -0.05 -0.01    +0.045 C 
ATOM     23  S   UNL     1     166.235 177.704 171.411 -0.16 +0.02    -0.109 S 
ATOM     24  C   UNL     1     166.451 175.910 171.211 -0.07 -0.02    +0.240 C 
ATOM     25  C   UNL     1     166.400 175.378 169.807 -0.06 +0.02    +0.364 C 
ATOM     26  O   UNL     1     166.869 176.003 168.855 -0.30 -0.00    -0.242 OA
ATOM     27  N   UNL     1     165.935 174.096 169.665 -0.52 +0.01    +0.029 NA
ENDBRANCH  17  18
ENDBRANCH  16  17
ENDBRANCH   3  16
TORSDOF 5
TER
ENDMDL
