MODEL        1
USER    Run = 1
USER
USER    Estimated Free Energy of Binding    =  -4.94 kcal/mol  [=(1)+(2)+(3)-(4)]
USER
USER    (1) Final Intermolecular Energy     =  -6.43 kcal/mol
USER        vdW + Hbond + desolv Energy     =  -6.55 kcal/mol
USER        Electrostatic Energy            =  +0.12 kcal/mol
USER        Moving Ligand-Fixed Receptor    =  -6.43 kcal/mol
USER        Moving Ligand-Moving Receptor   =  +0.00 kcal/mol
USER    (2) Final Total Internal Energy     =  -0.34 kcal/mol
USER    (3) Torsional Free Energy           =  +1.49 kcal/mol
USER    (4) Unbound System's Energy         =  -0.34 kcal/mol
USER
USER
REMARK  Name = Z16394155
REMARK  5 active torsions:
REMARK  status: ('A' for Active; 'I' for Inactive)
REMARK    1  A    between atoms: C_5  and  O_6
REMARK    2  A    between atoms: O_6  and  C_7
REMARK    3  A    between atoms: C_7  and  C_8
REMARK    4  A    between atoms: C_8  and  C_9
REMARK    5  A    between atoms: C_9  and  N_10
REMARK                            x       y       z     vdW  Elec       q    Type
REMARK                         _______ _______ _______ _____ _____    ______ ____
USER                              x       y       z     vdW  Elec       q    Type
USER                           _______ _______ _______ _____ _____    ______ ____
ROOT
ATOM      1  N   UNL     1     154.477 166.054 179.031 -0.26 +0.12    -0.224 N 
ATOM      2  C   UNL     1     153.535 166.838 179.640 -0.24 -0.19    +0.246 C 
ATOM      3  O   UNL     1     153.708 167.969 180.073 -0.25 +0.30    -0.273 OA
ATOM      4  C   UNL     1     152.232 166.027 179.764 -0.27 -0.07    +0.113 C 
ATOM      5  C   UNL     1     151.022 166.759 179.190 -0.14 -0.03    +0.035 C 
ATOM      6  C   UNL     1     149.733 165.962 179.401 -0.26 -0.00    +0.002 C 
ATOM      7  C   UNL     1     149.529 165.589 180.867 -0.35 -0.00    +0.000 C 
ATOM      8  C   UNL     1     150.735 164.858 181.449 -0.47 -0.00    +0.002 C 
ATOM      9  C   UNL     1     152.028 165.641 181.235 -0.34 -0.02    +0.035 C 
ATOM     10  N   UNL     1     152.594 164.877 178.965 -0.17 +0.12    -0.285 N 
ATOM     11  H   UNL     1     152.001 164.088 178.745 +0.08 -0.04    +0.151 HD
ATOM     12  C   UNL     1     153.914 164.896 178.587 -0.16 -0.14    +0.309 C 
ATOM     13  O   UNL     1     154.447 164.014 177.932 -0.21 +0.10    -0.252 OA
ENDROOT
BRANCH   1  14
ATOM     14  C   UNL     1     155.860 166.426 178.818 -0.36 -0.06    +0.121 C 
BRANCH  14  15
ATOM     15  C   UNL     1     156.038 167.639 177.909 -0.51 -0.04    +0.060 C 
BRANCH  15  16
ATOM     16  C   UNL     1     157.336 167.588 177.108 -0.25 -0.14    +0.230 C 
BRANCH  16  17
ATOM     17  O   UNL     1     158.215 168.594 177.613 -0.19 +0.22    -0.492 OA
BRANCH  17  22
ATOM     18  F   UNL     1     163.009 168.755 174.946 -0.06 +0.04    -0.205 F 
ATOM     19  C   UNL     1     161.838 168.746 175.594 -0.24 -0.01    +0.124 A 
ATOM     20  C   UNL     1     160.896 169.730 175.318 -0.40 -0.00    +0.042 A 
ATOM     21  C   UNL     1     159.669 169.720 175.988 -0.35 -0.01    +0.048 A 
ATOM     22  C   UNL     1     159.395 168.724 176.930 -0.38 -0.03    +0.121 A 
ATOM     23  C   UNL     1     160.348 167.736 177.190 -0.40 -0.01    +0.048 A 
ATOM     24  C   UNL     1     161.576 167.753 176.526 -0.38 -0.00    +0.042 A 
ENDBRANCH  17  22
ENDBRANCH  16  17
ENDBRANCH  15  16
ENDBRANCH  14  15
ENDBRANCH   1  14
TORSDOF 5
TER
ENDMDL
