MODEL        1
USER    Run = 1
USER
USER    Estimated Free Energy of Binding    =  -4.26 kcal/mol  [=(1)+(2)+(3)-(4)]
USER
USER    (1) Final Intermolecular Energy     =  -4.85 kcal/mol
USER        vdW + Hbond + desolv Energy     =  -4.82 kcal/mol
USER        Electrostatic Energy            =  -0.03 kcal/mol
USER        Moving Ligand-Fixed Receptor    =  -4.85 kcal/mol
USER        Moving Ligand-Moving Receptor   =  +0.00 kcal/mol
USER    (2) Final Total Internal Energy     =  -0.65 kcal/mol
USER    (3) Torsional Free Energy           =  +0.60 kcal/mol
USER    (4) Unbound System's Energy         =  -0.65 kcal/mol
USER
USER
REMARK  Name = Z16395532
REMARK  2 active torsions:
REMARK  status: ('A' for Active; 'I' for Inactive)
REMARK    1  A    between atoms: C_5  and  C_6
REMARK    2  A    between atoms: C_6  and  N_7
REMARK                            x       y       z     vdW  Elec       q    Type
REMARK                         _______ _______ _______ _____ _____    ______ ____
USER                              x       y       z     vdW  Elec       q    Type
USER                           _______ _______ _______ _____ _____    ______ ____
ROOT
ATOM      1  N   UNL     1     162.968 171.174 174.631 -0.13 +0.03    -0.220 N 
ATOM      2  C   UNL     1     162.673 172.326 175.308 -0.11 +0.02    +0.247 C 
ATOM      3  O   UNL     1     161.558 172.715 175.630 -0.28 -0.13    -0.273 OA
ATOM      4  C   UNL     1     163.989 173.058 175.614 -0.19 +0.00    +0.113 C 
ATOM      5  C   UNL     1     164.020 174.496 175.105 -0.18 +0.01    +0.035 C 
ATOM      6  C   UNL     1     163.759 175.346 176.337 -0.14 +0.00    +0.003 C 
ATOM      7  C   UNL     1     164.439 174.583 177.463 -0.24 +0.00    +0.003 C 
ATOM      8  C   UNL     1     164.235 173.108 177.127 -0.28 +0.00    +0.035 C 
ATOM      9  N   UNL     1     164.910 172.216 174.896 -0.05 +0.07    -0.285 N 
ATOM     10  H   UNL     1     165.872 172.439 174.674 +0.10 -0.05    +0.151 HD
ATOM     11  C   UNL     1     164.271 171.184 174.247 -0.05 -0.08    +0.310 C 
ATOM     12  O   UNL     1     164.817 170.469 173.424 -0.24 +0.09    -0.252 OA
ENDROOT
BRANCH   1  13
ATOM     13  C   UNL     1     162.000 170.177 174.232 -0.18 -0.01    +0.154 C 
BRANCH  13  19
ATOM     14  F   UNL     1     161.638 166.182 178.224 -0.09 +0.04    -0.205 F 
ATOM     15  C   UNL     1     161.720 167.113 177.264 -0.33 -0.02    +0.125 A 
ATOM     16  C   UNL     1     162.622 166.943 176.224 -0.25 -0.01    +0.058 A 
ATOM     17  C   UNL     1     162.715 167.916 175.225 -0.33 -0.01    +0.048 A 
ATOM     18 CL   UNL     1     163.865 167.641 173.968 -0.65 +0.02    -0.083 Cl
ATOM     19  C   UNL     1     161.901 169.063 175.260 -0.34 +0.00    -0.011 A 
ATOM     20  C   UNL     1     160.994 169.206 176.331 -0.44 -0.00    +0.009 A 
ATOM     21  C   UNL     1     160.908 168.234 177.329 -0.43 -0.01    +0.039 A 
ENDBRANCH  13  19
ENDBRANCH   1  13
TORSDOF 2
TER
ENDMDL
