MODEL        1
USER    Run = 1
USER
USER    Estimated Free Energy of Binding    =  -8.21 kcal/mol  [=(1)+(2)+(3)-(4)]
USER
USER    (1) Final Intermolecular Energy     =  -9.41 kcal/mol
USER        vdW + Hbond + desolv Energy     =  -9.29 kcal/mol
USER        Electrostatic Energy            =  -0.11 kcal/mol
USER        Moving Ligand-Fixed Receptor    =  -9.41 kcal/mol
USER        Moving Ligand-Moving Receptor   =  +0.00 kcal/mol
USER    (2) Final Total Internal Energy     =  -0.72 kcal/mol
USER    (3) Torsional Free Energy           =  +1.19 kcal/mol
USER    (4) Unbound System's Energy         =  -0.72 kcal/mol
USER
USER
REMARK  Name = Z16395570
REMARK  5 active torsions:
REMARK  status: ('A' for Active; 'I' for Inactive)
REMARK    1  A    between atoms: C_1  and  C_2
REMARK    2  A    between atoms: C_4  and  N_5
REMARK    3  A    between atoms: C_6  and  C_8
REMARK    4  A    between atoms: C_11  and  C_12
REMARK    5  A    between atoms: C_12  and  N_13
REMARK                            x       y       z     vdW  Elec       q    Type
REMARK                         _______ _______ _______ _____ _____    ______ ____
USER                              x       y       z     vdW  Elec       q    Type
USER                           _______ _______ _______ _____ _____    ______ ____
ROOT
ATOM      1  C   UNL     1     156.911 167.008 177.736 -0.42 -0.02    +0.037 A 
ATOM      2  C   UNL     1     156.919 168.397 177.541 -0.43 -0.01    +0.013 A 
ATOM      3  C   UNL     1     158.095 169.056 177.178 -0.35 -0.00    +0.006 A 
ATOM      4  C   UNL     1     159.288 168.337 177.023 -0.45 +0.01    -0.029 A 
ATOM      5  C   UNL     1     159.250 166.936 177.104 -0.16 -0.00    +0.006 A 
ATOM      6  C   UNL     1     158.068 166.273 177.458 -0.33 -0.00    +0.013 A 
ENDROOT
BRANCH   1   9
ATOM      7  N   UNL     1     155.002 167.068 179.266 -0.26 +0.19    -0.281 N 
ATOM      8  H   UNL     1     155.391 167.955 179.557 -0.08 -0.13    +0.155 HD
ATOM      9  C   UNL     1     155.654 166.385 178.248 -0.30 -0.12    +0.248 C 
ATOM     10  O   UNL     1     155.274 165.353 177.707 -0.23 +0.12    -0.270 OA
BRANCH   7  17
ATOM     11  C   UNL     1     151.337 167.952 182.522 -0.30 -0.04    +0.045 C 
ATOM     12  C   UNL     1     151.962 167.059 181.489 -0.25 +0.02    -0.030 A 
ATOM     13  C   UNL     1     151.379 165.852 181.086 -0.29 -0.02    +0.044 A 
ATOM     14 CL   UNL     1     149.890 165.296 181.757 -0.55 +0.02    -0.083 Cl
ATOM     15  C   UNL     1     151.999 165.066 180.110 -0.30 -0.01    +0.022 A 
ATOM     16  C   UNL     1     153.203 165.481 179.526 -0.30 -0.01    +0.025 A 
ATOM     17  C   UNL     1     153.797 166.687 179.906 -0.35 -0.02    +0.034 A 
ATOM     18  C   UNL     1     153.170 167.460 180.888 -0.24 -0.03    +0.028 A 
ENDBRANCH   7  17
ENDBRANCH   1   9
BRANCH   4  19
ATOM     19  C   UNL     1     160.605 169.073 176.938 -0.42 -0.02    +0.153 C 
BRANCH  19  20
ATOM     20  N   UNL     1     161.544 168.596 175.955 -0.26 +0.02    -0.220 N 
ATOM     21  C   UNL     1     162.036 169.375 174.942 -0.22 -0.02    +0.247 C 
ATOM     22  O   UNL     1     161.623 170.479 174.611 -0.30 +0.01    -0.273 OA
ATOM     23  C   UNL     1     163.240 168.653 174.306 -0.36 -0.02    +0.113 C 
ATOM     24  C   UNL     1     162.971 168.228 172.869 -0.36 -0.01    +0.035 C 
ATOM     25  C   UNL     1     163.532 169.371 172.039 -0.39 -0.00    +0.003 C 
ATOM     26  C   UNL     1     164.779 169.805 172.794 -0.36 -0.00    +0.003 C 
ATOM     27  C   UNL     1     164.487 169.542 174.274 -0.31 -0.01    +0.035 C 
ATOM     28  N   UNL     1     163.339 167.525 175.195 -0.24 +0.06    -0.285 N 
ATOM     29  H   UNL     1     164.057 166.812 175.181 +0.11 -0.05    +0.151 HD
ATOM     30  C   UNL     1     162.347 167.514 176.147 -0.21 -0.04    +0.310 C 
ATOM     31  O   UNL     1     162.274 166.683 177.038 -0.38 +0.04    -0.252 OA
ENDBRANCH  19  20
ENDBRANCH   4  19
TORSDOF 4
TER
ENDMDL
