MODEL        1
USER    Run = 1
USER
USER    Estimated Free Energy of Binding    =  -4.86 kcal/mol  [=(1)+(2)+(3)-(4)]
USER
USER    (1) Final Intermolecular Energy     =  -5.76 kcal/mol
USER        vdW + Hbond + desolv Energy     =  -5.69 kcal/mol
USER        Electrostatic Energy            =  -0.06 kcal/mol
USER        Moving Ligand-Fixed Receptor    =  -5.76 kcal/mol
USER        Moving Ligand-Moving Receptor   =  +0.00 kcal/mol
USER    (2) Final Total Internal Energy     =  -0.57 kcal/mol
USER    (3) Torsional Free Energy           =  +0.89 kcal/mol
USER    (4) Unbound System's Energy         =  -0.57 kcal/mol
USER
USER
REMARK  Name = Z16336837
REMARK  3 active torsions:
REMARK  status: ('A' for Active; 'I' for Inactive)
REMARK    1  A    between atoms: N_16  and  C_17
REMARK    2  A    between atoms: C_17  and  C_18
REMARK    3  A    between atoms: C_22  and  C_23
REMARK                            x       y       z     vdW  Elec       q    Type
REMARK                         _______ _______ _______ _____ _____    ______ ____
USER                              x       y       z     vdW  Elec       q    Type
USER                           _______ _______ _______ _____ _____    ______ ____
ROOT
ATOM      1  O   UNL     1     165.601 168.371 174.223 -0.21 +0.10    -0.252 OA
ATOM      2  C   UNL     1     165.164 169.505 174.326 -0.10 -0.14    +0.310 C 
ATOM      3  N   UNL     1     163.860 169.889 174.380 -0.14 +0.06    -0.220 N 
ATOM      4  C   UNL     1     163.765 171.256 174.461 -0.07 -0.05    +0.252 C 
ATOM      5  O   UNL     1     162.733 171.902 174.593 -0.03 +0.01    -0.272 OA
ATOM      6  C   UNL     1     165.171 171.841 174.168 -0.16 -0.05    +0.144 C 
ATOM      7  C   UNL     1     165.161 172.362 172.742 -0.17 -0.01    +0.026 A 
ATOM      8  C   UNL     1     165.193 173.740 172.506 -0.06 -0.02    +0.126 A 
ATOM      9  C   UNL     1     165.075 174.242 171.208 -0.19 -0.01    +0.046 A 
ATOM     10  C   UNL     1     164.887 173.377 170.130 -0.32 -0.00    +0.004 A 
ATOM     11  C   UNL     1     164.848 172.005 170.345 -0.30 -0.00    +0.001 A 
ATOM     12  O   UNL     1     165.359 174.676 173.490 +0.05 +0.09    -0.491 OA
ATOM     13  C   UNL     1     165.003 174.244 174.805 -0.03 -0.02    +0.232 C 
ATOM     14  C   UNL     1     164.993 171.500 171.636 -0.27 -0.00    +0.010 A 
ATOM     15  C   UNL     1     165.620 172.904 175.159 +0.00 -0.02    +0.081 C 
ATOM     16  N   UNL     1     165.954 170.633 174.328 -0.13 +0.18    -0.281 N 
ATOM     17  H   UNL     1     166.941 170.558 174.118 -0.37 -0.19    +0.152 HD
ENDROOT
BRANCH   3  18
ATOM     18  C   UNL     1     162.754 169.020 174.058 -0.31 -0.02    +0.153 C 
BRANCH  18  19
ATOM     19  C   UNL     1     161.912 168.667 175.249 -0.27 +0.00    -0.028 A 
ATOM     20  C   UNL     1     162.169 167.497 175.975 -0.37 -0.00    +0.024 A 
ATOM     21  C   UNL     1     161.402 167.190 177.103 -0.38 -0.01    +0.052 A 
ATOM     22  C   UNL     1     160.379 168.052 177.512 -0.42 -0.00    +0.019 A 
ATOM     23  C   UNL     1     160.113 169.211 176.784 -0.48 -0.00    +0.002 A 
ATOM     24  C   UNL     1     160.875 169.516 175.657 -0.42 -0.00    +0.005 A 
BRANCH  21  25
ATOM     25  C   UNL     1     161.667 165.994 177.845 -0.28 -0.02    +0.099 C 
ATOM     26  N   UNL     1     161.882 165.025 178.439 -0.27 +0.05    -0.191 NA
ENDBRANCH  21  25
ENDBRANCH  18  19
ENDBRANCH   3  18
TORSDOF 3
TER
ENDMDL
