MODEL        1
USER    Run = 1
USER
USER    Estimated Free Energy of Binding    =  -5.12 kcal/mol  [=(1)+(2)+(3)-(4)]
USER
USER    (1) Final Intermolecular Energy     =  -6.91 kcal/mol
USER        vdW + Hbond + desolv Energy     =  -6.64 kcal/mol
USER        Electrostatic Energy            =  -0.27 kcal/mol
USER        Moving Ligand-Fixed Receptor    =  -6.91 kcal/mol
USER        Moving Ligand-Moving Receptor   =  +0.00 kcal/mol
USER    (2) Final Total Internal Energy     =  -1.75 kcal/mol
USER    (3) Torsional Free Energy           =  +1.79 kcal/mol
USER    (4) Unbound System's Energy         =  -1.75 kcal/mol
USER
USER
REMARK  Name = Z16382399
REMARK  7 active torsions:
REMARK  status: ('A' for Active; 'I' for Inactive)
REMARK    1  A    between atoms: C_1  and  C_2
REMARK    2  A    between atoms: C_2  and  N_3
REMARK    3  A    between atoms: N_3  and  C_4
REMARK    4  A    between atoms: C_11  and  C_13
REMARK    5  A    between atoms: C_13  and  S_14
REMARK    6  A    between atoms: S_14  and  C_15
REMARK    7  A    between atoms: N_20  and  C_24
REMARK                            x       y       z     vdW  Elec       q    Type
REMARK                         _______ _______ _______ _____ _____    ______ ____
USER                              x       y       z     vdW  Elec       q    Type
USER                           _______ _______ _______ _____ _____    ______ ____
ROOT
ATOM      1  C   UNL     1     165.063 171.359 172.140 -0.20 -0.02    +0.111 A 
ATOM      2  C   UNL     1     164.134 170.378 172.519 -0.24 -0.02    +0.071 A 
ATOM      3  C   UNL     1     163.828 170.289 173.876 -0.16 -0.04    +0.167 A 
ATOM      4  N   UNL     1     162.888 169.266 174.015 -0.23 +0.04    -0.214 N 
ATOM      5  N   UNL     1     162.570 168.729 172.808 -0.27 +0.03    -0.172 NA
ATOM      6  N   UNL     1     164.356 171.065 174.847 +0.03 +0.06    -0.216 NA
ATOM      7  C   UNL     1     165.231 171.961 174.375 -0.04 -0.07    +0.224 A 
ATOM      8  C   UNL     1     163.345 169.366 171.945 -0.19 -0.04    +0.147 A 
ATOM      9  N   UNL     1     165.599 172.151 173.099 -0.10 +0.06    -0.228 NA
ENDROOT
BRANCH   4  10
ATOM     10  C   UNL     1     162.265 168.719 175.173 -0.28 -0.01    +0.068 A 
ATOM     11  C   UNL     1     161.151 169.386 175.715 -0.40 -0.00    +0.028 A 
ATOM     12  C   UNL     1     160.479 168.871 176.821 -0.49 -0.00    +0.002 A 
ATOM     13  C   UNL     1     160.914 167.682 177.395 -0.46 -0.00    +0.000 A 
ATOM     14  C   UNL     1     162.024 167.019 176.871 -0.40 -0.00    +0.002 A 
ATOM     15  C   UNL     1     162.705 167.533 175.763 -0.36 -0.00    +0.028 A 
ENDBRANCH   4  10
BRANCH   1  16
ATOM     16  S   UNL     1     165.600 171.720 170.480 -0.21 -0.02    -0.096 S 
BRANCH  16  17
ATOM     17  C   UNL     1     164.723 173.241 170.095 -0.26 -0.01    +0.171 C 
BRANCH  17  19
ATOM     18  N   UNL     1     165.779 175.300 171.037 -0.06 +0.03    -0.296 N 
ATOM     19  C   UNL     1     165.608 174.448 169.940 -0.18 +0.01    +0.226 C 
ATOM     20  O   UNL     1     166.054 174.724 168.823 -0.33 -0.01    -0.275 OA
BRANCH  18  21
ATOM     21  C   UNL     1     165.479 174.943 172.448 -0.10 -0.02    +0.099 C 
ATOM     22  C   UNL     1     164.017 175.186 172.854 -0.10 -0.06    +0.188 C 
ATOM     23  S   UNL     1     164.055 175.642 174.577 -0.23 -0.00    -0.029 S 
ATOM     24  O   UNL     1     163.367 174.628 175.348 -0.59 -0.11    -0.174 OA
ATOM     25  O   UNL     1     163.730 177.048 174.678 -0.38 -0.02    -0.174 OA
ATOM     26  C   UNL     1     165.808 175.456 174.820 -0.02 -0.02    +0.168 C 
ATOM     27  C   UNL     1     166.404 175.660 173.441 -0.01 -0.01    +0.046 C 
ENDBRANCH  18  21
BRANCH  18  29
ATOM     28  C   UNL     1     167.885 176.505 170.393 -0.20 +0.00    +0.024 C 
ATOM     29  C   UNL     1     166.407 176.597 170.745 -0.17 -0.01    +0.105 C 
ENDBRANCH  18  29
ENDBRANCH  17  19
ENDBRANCH  16  17
ENDBRANCH   1  16
TORSDOF 6
TER
ENDMDL
