MODEL        1
USER    Run = 1
USER
USER    Estimated Free Energy of Binding    =  -4.88 kcal/mol  [=(1)+(2)+(3)-(4)]
USER
USER    (1) Final Intermolecular Energy     =  -6.97 kcal/mol
USER        vdW + Hbond + desolv Energy     =  -6.89 kcal/mol
USER        Electrostatic Energy            =  -0.08 kcal/mol
USER        Moving Ligand-Fixed Receptor    =  -6.97 kcal/mol
USER        Moving Ligand-Moving Receptor   =  +0.00 kcal/mol
USER    (2) Final Total Internal Energy     =  -1.42 kcal/mol
USER    (3) Torsional Free Energy           =  +2.09 kcal/mol
USER    (4) Unbound System's Energy         =  -1.42 kcal/mol
USER
USER
REMARK  Name = Z16382396
REMARK  8 active torsions:
REMARK  status: ('A' for Active; 'I' for Inactive)
REMARK    1  A    between atoms: C_1  and  C_2
REMARK    2  A    between atoms: C_2  and  O_3
REMARK    3  A    between atoms: O_3  and  C_4
REMARK    4  A    between atoms: C_4  and  C_6
REMARK    5  A    between atoms: C_6  and  S_7
REMARK    6  A    between atoms: C_6  and  C_23
REMARK    7  A    between atoms: S_7  and  C_8
REMARK    8  A    between atoms: N_13  and  C_17
REMARK                            x       y       z     vdW  Elec       q    Type
REMARK                         _______ _______ _______ _____ _____    ______ ____
USER                              x       y       z     vdW  Elec       q    Type
USER                           _______ _______ _______ _____ _____    ______ ____
ROOT
ATOM      1  C   UNL     1     164.860 172.000 173.248 -0.12 -0.03    +0.112 A 
ATOM      2  C   UNL     1     164.068 170.874 173.477 -0.19 -0.02    +0.071 A 
ATOM      3  C   UNL     1     163.207 170.905 174.562 -0.05 -0.03    +0.167 A 
ATOM      4  N   UNL     1     162.533 169.678 174.564 -0.22 +0.03    -0.214 N 
ATOM      5  N   UNL     1     162.954 168.885 173.529 -0.27 +0.03    -0.172 NA
ATOM      6  N   UNL     1     163.086 171.944 175.415 -0.12 +0.00    -0.216 NA
ATOM      7  C   UNL     1     163.907 172.965 175.104 -0.05 -0.00    +0.224 A 
ATOM      8  C   UNL     1     163.866 169.614 172.893 -0.25 -0.04    +0.147 A 
ATOM      9  N   UNL     1     164.788 173.047 174.088 -0.06 +0.04    -0.228 NA
ENDROOT
BRANCH   4  10
ATOM     10  C   UNL     1     161.544 169.173 175.465 -0.30 -0.00    +0.068 A 
ATOM     11  C   UNL     1     161.845 168.043 176.248 -0.36 -0.00    +0.028 A 
ATOM     12  C   UNL     1     160.915 167.538 177.161 -0.45 -0.00    +0.002 A 
ATOM     13  C   UNL     1     159.673 168.150 177.296 -0.44 -0.00    +0.000 A 
ATOM     14  C   UNL     1     159.360 169.262 176.517 -0.39 -0.00    +0.002 A 
ATOM     15  C   UNL     1     160.286 169.773 175.602 -0.44 -0.00    +0.028 A 
ENDBRANCH   4  10
BRANCH   1  16
ATOM     16  S   UNL     1     165.928 171.975 171.847 -0.31 +0.00    -0.086 S 
BRANCH  16  17
ATOM     17  C   UNL     1     165.075 173.049 170.622 -0.20 -0.00    +0.191 C 
BRANCH  17  18
ATOM     18  C   UNL     1     165.573 174.483 170.817 -0.22 +0.00    -0.024 A 
ATOM     19  C   UNL     1     165.208 175.221 171.962 -0.14 -0.00    +0.005 A 
ATOM     20  C   UNL     1     165.637 176.537 172.137 -0.08 -0.00    +0.000 A 
ATOM     21  C   UNL     1     166.442 177.136 171.174 -0.14 -0.00    +0.000 A 
ATOM     22  C   UNL     1     166.818 176.420 170.039 -0.24 -0.00    +0.000 A 
ATOM     23  C   UNL     1     166.390 175.101 169.859 -0.28 +0.00    +0.005 A 
ENDBRANCH  17  18
BRANCH  17  24
ATOM     24  C   UNL     1     165.315 172.619 169.173 -0.19 +0.02    +0.325 C 
ATOM     25  O   UNL     1     166.402 172.376 168.660 -0.74 -0.18    -0.249 OA
BRANCH  24  26
ATOM     26  O   UNL     1     164.138 172.734 168.479 -0.10 +0.18    -0.464 OA
BRANCH  26  28
ATOM     27  C   UNL     1     161.897 173.478 168.845 -0.45 -0.02    +0.048 C 
ATOM     28  C   UNL     1     162.942 172.438 169.214 -0.10 -0.08    +0.229 C 
ENDBRANCH  26  28
ENDBRANCH  24  26
ENDBRANCH  17  24
ENDBRANCH  16  17
ENDBRANCH   1  16
TORSDOF 7
TER
ENDMDL
