MODEL        1
USER    Run = 1
USER
USER    Estimated Free Energy of Binding    =  -4.18 kcal/mol  [=(1)+(2)+(3)-(4)]
USER
USER    (1) Final Intermolecular Energy     =  -5.07 kcal/mol
USER        vdW + Hbond + desolv Energy     =  -5.06 kcal/mol
USER        Electrostatic Energy            =  -0.01 kcal/mol
USER        Moving Ligand-Fixed Receptor    =  -5.07 kcal/mol
USER        Moving Ligand-Moving Receptor   =  +0.00 kcal/mol
USER    (2) Final Total Internal Energy     =  -0.59 kcal/mol
USER    (3) Torsional Free Energy           =  +0.89 kcal/mol
USER    (4) Unbound System's Energy         =  -0.59 kcal/mol
USER
USER
REMARK  Name = Z16395771
REMARK  4 active torsions:
REMARK  status: ('A' for Active; 'I' for Inactive)
REMARK    1  A    between atoms: C_1  and  O_2
REMARK    2  A    between atoms: O_2  and  C_3
REMARK    3  A    between atoms: C_6  and  C_7
REMARK    4  A    between atoms: C_7  and  N_8
REMARK                            x       y       z     vdW  Elec       q    Type
REMARK                         _______ _______ _______ _____ _____    ______ ____
USER                              x       y       z     vdW  Elec       q    Type
USER                           _______ _______ _______ _____ _____    ______ ____
ROOT
ATOM      1  N   UNL     1     164.315 168.969 173.977 -0.26 +0.06    -0.220 N 
ATOM      2  C   UNL     1     164.050 169.754 172.894 -0.23 -0.06    +0.247 C 
ATOM      3  O   UNL     1     163.129 169.612 172.101 -0.20 +0.07    -0.273 OA
ATOM      4  C   UNL     1     165.115 170.863 172.829 -0.27 -0.04    +0.113 C 
ATOM      5  C   UNL     1     165.881 170.860 171.508 -0.12 -0.00    +0.035 C 
ATOM      6  C   UNL     1     165.255 171.994 170.708 -0.34 +0.00    +0.003 C 
ATOM      7  C   UNL     1     164.926 173.042 171.760 -0.23 -0.00    +0.003 C 
ATOM      8  C   UNL     1     164.484 172.249 172.987 -0.12 -0.01    +0.035 C 
ATOM      9  N   UNL     1     165.937 170.480 173.947 -0.01 +0.20    -0.285 N 
ATOM     10  H   UNL     1     166.798 170.925 174.241 -0.20 -0.14    +0.151 HD
ATOM     11  C   UNL     1     165.458 169.367 174.596 +0.02 -0.16    +0.310 C 
ATOM     12  O   UNL     1     166.011 168.843 175.548 -0.15 +0.14    -0.252 OA
ENDROOT
BRANCH   1  13
ATOM     13  C   UNL     1     163.536 167.819 174.368 -0.38 -0.03    +0.153 C 
BRANCH  13  18
ATOM     14  C   UNL     1     160.242 169.006 176.910 -0.36 -0.03    +0.155 A 
ATOM     15  C   UNL     1     160.584 169.760 175.786 -0.32 -0.01    +0.165 A 
ATOM     16  F   UNL     1     159.926 170.887 175.478 -0.12 -0.01    -0.202 F 
ATOM     17  C   UNL     1     161.621 169.361 174.945 -0.30 -0.00    +0.047 A 
ATOM     18  C   UNL     1     162.346 168.195 175.221 -0.30 +0.00    -0.027 A 
ATOM     19  C   UNL     1     161.950 167.394 176.302 -0.38 -0.00    +0.009 A 
ATOM     20  C   UNL     1     160.902 167.797 177.137 -0.42 -0.01    +0.049 A 
BRANCH  14  22
ATOM     21  C   UNL     1     157.970 168.857 177.489 -0.26 -0.14    +0.277 C 
ATOM     22  O   UNL     1     159.273 169.333 177.822 -0.11 +0.15    -0.492 OA
ENDBRANCH  14  22
ENDBRANCH  13  18
ENDBRANCH   1  13
TORSDOF 3
TER
ENDMDL
