MODEL        1
USER    Run = 1
USER
USER    Estimated Free Energy of Binding    =  -5.84 kcal/mol  [=(1)+(2)+(3)-(4)]
USER
USER    (1) Final Intermolecular Energy     =  -7.03 kcal/mol
USER        vdW + Hbond + desolv Energy     =  -6.97 kcal/mol
USER        Electrostatic Energy            =  -0.06 kcal/mol
USER        Moving Ligand-Fixed Receptor    =  -7.03 kcal/mol
USER        Moving Ligand-Moving Receptor   =  +0.00 kcal/mol
USER    (2) Final Total Internal Energy     =  -0.80 kcal/mol
USER    (3) Torsional Free Energy           =  +1.19 kcal/mol
USER    (4) Unbound System's Energy         =  -0.80 kcal/mol
USER
USER
REMARK  Name = Z16381910
REMARK  4 active torsions:
REMARK  status: ('A' for Active; 'I' for Inactive)
REMARK    1  A    between atoms: C_1  and  S_2
REMARK    2  A    between atoms: C_1  and  C_18
REMARK    3  A    between atoms: S_2  and  C_3
REMARK    4  A    between atoms: N_8  and  C_12
REMARK                            x       y       z     vdW  Elec       q    Type
REMARK                         _______ _______ _______ _____ _____    ______ ____
USER                              x       y       z     vdW  Elec       q    Type
USER                           _______ _______ _______ _____ _____    ______ ____
ROOT
ATOM      1  C   UNL     1     154.505 166.073 178.532 -0.27 -0.06    +0.111 A 
ATOM      2  C   UNL     1     155.774 165.981 177.966 -0.34 -0.03    +0.071 A 
ATOM      3  C   UNL     1     156.555 167.127 177.981 -0.32 -0.09    +0.167 A 
ATOM      4  N   UNL     1     157.763 166.791 177.366 -0.29 +0.09    -0.214 N 
ATOM      5  N   UNL     1     157.769 165.476 176.982 -0.26 +0.07    -0.172 NA
ATOM      6  N   UNL     1     156.178 168.312 178.507 -0.29 +0.14    -0.216 NA
ATOM      7  C   UNL     1     154.942 168.281 179.025 -0.17 -0.19    +0.224 A 
ATOM      8  C   UNL     1     156.573 165.013 177.338 -0.23 -0.07    +0.147 A 
ATOM      9  N   UNL     1     154.090 167.243 179.061 -0.26 +0.19    -0.228 NA
ENDROOT
BRANCH   4  10
ATOM     10  C   UNL     1     158.903 167.612 177.102 -0.35 -0.02    +0.068 A 
ATOM     11  C   UNL     1     160.188 167.111 177.375 -0.22 -0.01    +0.028 A 
ATOM     12  C   UNL     1     161.323 167.883 177.108 -0.43 -0.00    +0.002 A 
ATOM     13  C   UNL     1     161.188 169.158 176.568 -0.40 -0.00    +0.000 A 
ATOM     14  C   UNL     1     159.919 169.667 176.300 -0.38 -0.00    +0.002 A 
ATOM     15  C   UNL     1     158.780 168.901 176.567 -0.30 -0.01    +0.028 A 
ENDBRANCH   4  10
BRANCH   1  16
ATOM     16  S   UNL     1     153.473 164.644 178.606 -0.41 +0.04    -0.103 S 
BRANCH  16  17
ATOM     17  C   UNL     1     151.997 165.352 179.425 -0.29 -0.05    +0.107 C 
BRANCH  17  18
ATOM     18  C   UNL     1     152.098 165.242 180.960 -0.27 -0.05    +0.128 C 
ATOM     19  O   UNL     1     150.867 164.862 181.592 -0.29 +0.08    -0.376 OA
ATOM     20  C   UNL     1     149.836 165.845 181.537 -0.32 -0.05    +0.160 C 
ATOM     21  C   UNL     1     150.277 167.140 182.203 -0.29 -0.02    +0.028 C 
ATOM     22  C   UNL     1     151.586 167.643 181.608 -0.30 -0.00    +0.005 C 
ATOM     23  C   UNL     1     152.632 166.530 181.600 -0.30 -0.02    +0.032 C 
ENDBRANCH  17  18
ENDBRANCH  16  17
ENDBRANCH   1  16
TORSDOF 4
TER
ENDMDL
