MODEL        1
USER    Run = 1
USER
USER    Estimated Free Energy of Binding    =  -4.19 kcal/mol  [=(1)+(2)+(3)-(4)]
USER
USER    (1) Final Intermolecular Energy     =  -5.98 kcal/mol
USER        vdW + Hbond + desolv Energy     =  -5.93 kcal/mol
USER        Electrostatic Energy            =  -0.05 kcal/mol
USER        Moving Ligand-Fixed Receptor    =  -5.98 kcal/mol
USER        Moving Ligand-Moving Receptor   =  +0.00 kcal/mol
USER    (2) Final Total Internal Energy     =  -2.98 kcal/mol
USER    (3) Torsional Free Energy           =  +1.79 kcal/mol
USER    (4) Unbound System's Energy         =  -2.98 kcal/mol
USER
USER
REMARK  Name = Z16326236
REMARK  6 active torsions:
REMARK  status: ('A' for Active; 'I' for Inactive)
REMARK    1  A    between atoms: C_2  and  C_3
REMARK    2  A    between atoms: C_3  and  N_4
REMARK    3  A    between atoms: C_8  and  C_9
REMARK    4  A    between atoms: C_8  and  C_18
REMARK    5  A    between atoms: C_9  and  C_10
REMARK    6  A    between atoms: N_24  and  C_25
REMARK                            x       y       z     vdW  Elec       q    Type
REMARK                         _______ _______ _______ _____ _____    ______ ____
USER                              x       y       z     vdW  Elec       q    Type
USER                           _______ _______ _______ _____ _____    ______ ____
ROOT
ATOM      1  N   UNL     1     164.981 172.510 175.061 -0.09 +0.05    -0.215 N 
ATOM      2  C   UNL     1     164.349 172.765 173.871 -0.01 -0.04    +0.252 C 
ATOM      3  O   UNL     1     163.379 173.501 173.728 +0.28 +0.02    -0.272 OA
ATOM      4  C   UNL     1     165.070 171.978 172.735 -0.17 -0.03    +0.142 C 
ATOM      5  N   UNL     1     166.140 171.407 173.536 -0.05 +0.15    -0.281 N 
ATOM      6  H   UNL     1     166.907 170.865 173.167 -0.37 -0.17    +0.152 HD
ATOM      7  C   UNL     1     166.012 171.648 174.876 +0.10 -0.15    +0.310 C 
ATOM      8  O   UNL     1     166.751 171.179 175.723 -0.31 +0.17    -0.252 OA
ENDROOT
BRANCH   4   9
ATOM      9  C   UNL     1     165.612 172.928 171.665 -0.19 +0.00    -0.015 A 
ATOM     10  C   UNL     1     165.405 172.679 170.295 -0.27 +0.00    +0.006 A 
ATOM     11  C   UNL     1     165.808 173.600 169.324 -0.36 +0.00    +0.000 A 
ATOM     12  C   UNL     1     166.435 174.783 169.701 -0.26 +0.00    +0.000 A 
ATOM     13  C   UNL     1     166.705 175.023 171.043 -0.19 +0.00    +0.000 A 
ATOM     14  C   UNL     1     166.323 174.091 172.010 -0.07 -0.00    +0.006 A 
ENDBRANCH   4   9
BRANCH   1  15
ATOM     15  C   UNL     1     164.688 173.100 176.355 -0.14 -0.01    +0.213 C 
BRANCH  15  17
ATOM     16  O   UNL     1     162.983 172.815 178.049 -0.17 -0.02    -0.274 OA
ATOM     17  C   UNL     1     163.298 172.677 176.872 +0.04 +0.02    +0.231 C 
ATOM     18  N   UNL     1     162.507 172.015 175.947 -0.13 -0.03    -0.311 N 
ATOM     19  H   UNL     1     162.941 171.768 175.072 +0.09 -0.01    +0.149 HD
BRANCH  18  20
ATOM     20  C   UNL     1     161.205 171.442 176.203 -0.23 +0.01    +0.073 C 
ATOM     21  C   UNL     1     161.170 170.190 177.088 -0.25 -0.00    +0.022 C 
ATOM     22  C   UNL     1     159.976 169.366 176.590 -0.53 -0.00    +0.002 C 
ATOM     23  C   UNL     1     159.282 170.221 175.536 -0.30 -0.00    +0.002 C 
ATOM     24  C   UNL     1     160.402 171.072 174.961 -0.26 +0.00    +0.022 C 
ENDBRANCH  18  20
ENDBRANCH  15  17
ENDBRANCH   1  15
BRANCH   4  25
ATOM     25  C   UNL     1     164.136 170.838 172.222 -0.19 -0.02    +0.075 C 
BRANCH  25  26
ATOM     26  C   UNL     1     163.876 169.706 173.211 -0.32 +0.01    -0.044 A 
ATOM     27  C   UNL     1     164.926 168.899 173.677 -0.27 -0.00    +0.003 A 
ATOM     28  C   UNL     1     164.685 167.872 174.596 -0.36 -0.00    +0.000 A 
ATOM     29  C   UNL     1     163.396 167.641 175.067 -0.39 -0.00    +0.000 A 
ATOM     30  C   UNL     1     162.342 168.423 174.605 -0.20 -0.00    +0.000 A 
ATOM     31  C   UNL     1     162.578 169.431 173.669 -0.34 -0.00    +0.003 A 
ENDBRANCH  25  26
ENDBRANCH   4  25
TORSDOF 6
TER
ENDMDL
