MODEL        1
USER    Run = 1
USER
USER    Estimated Free Energy of Binding    =  -5.56 kcal/mol  [=(1)+(2)+(3)-(4)]
USER
USER    (1) Final Intermolecular Energy     =  -7.06 kcal/mol
USER        vdW + Hbond + desolv Energy     =  -6.65 kcal/mol
USER        Electrostatic Energy            =  -0.41 kcal/mol
USER        Moving Ligand-Fixed Receptor    =  -7.06 kcal/mol
USER        Moving Ligand-Moving Receptor   =  +0.00 kcal/mol
USER    (2) Final Total Internal Energy     =  -1.80 kcal/mol
USER    (3) Torsional Free Energy           =  +1.49 kcal/mol
USER    (4) Unbound System's Energy         =  -1.80 kcal/mol
USER
USER
REMARK  Name = Z16325764
REMARK  7 active torsions:
REMARK  status: ('A' for Active; 'I' for Inactive)
REMARK    1  A    between atoms: C_1  and  C_2
REMARK    2  A    between atoms: C_5  and  C_6
REMARK    3  A    between atoms: C_7  and  C_8
REMARK    4  A    between atoms: C_8  and  N_9
REMARK    5  A    between atoms: C_13  and  C_14
REMARK    6  A    between atoms: C_13  and  C_23
REMARK    7  A    between atoms: C_14  and  C_15
REMARK                            x       y       z     vdW  Elec       q    Type
REMARK                         _______ _______ _______ _____ _____    ______ ____
USER                              x       y       z     vdW  Elec       q    Type
USER                           _______ _______ _______ _____ _____    ______ ____
ROOT
ATOM      1  N   UNL     1     165.202 171.943 175.116 -0.09 +0.07    -0.219 N 
ATOM      2  C   UNL     1     164.075 171.799 174.344 -0.07 -0.05    +0.252 C 
ATOM      3  O   UNL     1     163.013 172.389 174.508 -0.04 +0.00    -0.272 OA
ATOM      4  C   UNL     1     164.382 170.791 173.193 -0.23 -0.04    +0.142 C 
ATOM      5  N   UNL     1     165.555 170.190 173.800 -0.11 +0.16    -0.281 N 
ATOM      6  H   UNL     1     166.048 169.390 173.421 +0.05 -0.13    +0.152 HD
ATOM      7  C   UNL     1     166.043 170.908 174.867 -0.06 -0.18    +0.310 C 
ATOM      8  O   UNL     1     167.033 170.581 175.497 -0.37 +0.22    -0.252 OA
ENDROOT
BRANCH   4   9
ATOM      9  C   UNL     1     164.708 171.603 171.933 -0.22 +0.00    -0.015 A 
ATOM     10  C   UNL     1     165.635 172.657 171.994 -0.19 -0.00    +0.006 A 
ATOM     11  C   UNL     1     165.980 173.378 170.851 -0.20 +0.00    +0.000 A 
ATOM     12  C   UNL     1     165.416 173.049 169.624 -0.37 +0.00    +0.000 A 
ATOM     13  C   UNL     1     164.498 172.011 169.541 -0.35 -0.00    +0.000 A 
ATOM     14  C   UNL     1     164.141 171.294 170.686 -0.16 -0.00    +0.006 A 
ENDBRANCH   4   9
BRANCH   1  15
ATOM     15  C   UNL     1     165.315 172.800 176.279 -0.13 -0.03    +0.158 C 
BRANCH  15  18
ATOM     16  C   UNL     1     164.932 174.974 173.773 -0.11 -0.01    +0.069 C 
ATOM     17  C   UNL     1     164.307 174.956 175.115 -0.09 +0.01    +0.086 A 
ATOM     18  C   UNL     1     164.444 174.015 176.188 -0.18 +0.00    +0.035 A 
ATOM     19  C   UNL     1     163.661 174.569 177.187 -0.14 +0.07    +0.139 A 
ATOM     20  C   UNL     1     163.360 174.210 178.585 -0.00 +0.02    +0.089 C 
ATOM     21  O   UNL     1     163.098 175.722 176.747 -0.53 -0.45    -0.359 OA
ATOM     22  N   UNL     1     163.497 175.969 175.456 -0.42 -0.06    -0.083 NA
ENDBRANCH  15  18
ENDBRANCH   1  15
BRANCH   4  23
ATOM     23  C   UNL     1     163.246 169.749 172.996 -0.28 -0.02    +0.075 C 
BRANCH  23  24
ATOM     24  C   UNL     1     162.686 169.212 174.306 -0.32 +0.01    -0.044 A 
ATOM     25  C   UNL     1     161.601 169.838 174.939 -0.40 -0.00    +0.003 A 
ATOM     26  C   UNL     1     161.003 169.266 176.063 -0.44 -0.00    +0.000 A 
ATOM     27  C   UNL     1     161.496 168.073 176.586 -0.42 -0.00    +0.000 A 
ATOM     28  C   UNL     1     162.606 167.468 176.001 -0.39 -0.00    +0.000 A 
ATOM     29  C   UNL     1     163.201 168.035 174.871 -0.39 -0.00    +0.003 A 
ENDBRANCH  23  24
ENDBRANCH   4  23
TORSDOF 5
TER
ENDMDL
