MODEL        1
USER    Run = 1
USER
USER    Estimated Free Energy of Binding    =  -5.30 kcal/mol  [=(1)+(2)+(3)-(4)]
USER
USER    (1) Final Intermolecular Energy     =  -6.49 kcal/mol
USER        vdW + Hbond + desolv Energy     =  -6.35 kcal/mol
USER        Electrostatic Energy            =  -0.14 kcal/mol
USER        Moving Ligand-Fixed Receptor    =  -6.49 kcal/mol
USER        Moving Ligand-Moving Receptor   =  +0.00 kcal/mol
USER    (2) Final Total Internal Energy     =  -0.81 kcal/mol
USER    (3) Torsional Free Energy           =  +1.19 kcal/mol
USER    (4) Unbound System's Energy         =  -0.81 kcal/mol
USER
USER
REMARK  Name = Z16396229
REMARK  4 active torsions:
REMARK  status: ('A' for Active; 'I' for Inactive)
REMARK    1  A    between atoms: C_2  and  C_5
REMARK    2  A    between atoms: C_10  and  N_11
REMARK    3  A    between atoms: C_12  and  C_14
REMARK    4  A    between atoms: C_14  and  N_15
REMARK                            x       y       z     vdW  Elec       q    Type
REMARK                         _______ _______ _______ _____ _____    ______ ____
USER                              x       y       z     vdW  Elec       q    Type
USER                           _______ _______ _______ _____ _____    ______ ____
ROOT
ATOM      1  N   UNL     1     152.616 167.450 179.511 -0.05 +0.28    -0.284 N 
ATOM      2  H   UNL     1     152.268 167.837 178.634 -0.39 -0.29    +0.155 HD
ATOM      3  C   UNL     1     154.002 167.434 179.669 -0.26 -0.21    +0.235 C 
ATOM      4  O   UNL     1     154.617 166.739 180.476 -0.31 +0.21    -0.274 OA
ENDROOT
BRANCH   1   6
ATOM      5  C   UNL     1     151.183 165.511 180.077 -0.25 -0.03    +0.076 A 
ATOM      6  C   UNL     1     151.687 166.796 180.373 -0.21 -0.03    +0.045 A 
ATOM      7  C   UNL     1     151.233 167.426 181.545 -0.21 -0.02    +0.024 A 
ATOM      8  C   UNL     1     150.354 166.800 182.430 -0.27 -0.00    +0.002 A 
ATOM      9  C   UNL     1     149.885 165.526 182.154 -0.31 -0.00    +0.001 A 
ATOM     10  C   UNL     1     150.288 164.891 180.982 -0.37 -0.00    +0.014 A 
BRANCH   5  12
ATOM     11  F   UNL     1     151.748 165.530 177.738 -0.08 +0.10    -0.166 F 
ATOM     12  C   UNL     1     151.577 164.745 178.842 -0.11 -0.14    +0.419 C 
ATOM     13  F   UNL     1     152.748 164.070 178.998 -0.10 +0.05    -0.166 F 
ATOM     14  F   UNL     1     150.651 163.813 178.486 -0.07 +0.02    -0.166 F 
ENDBRANCH   5  12
ENDBRANCH   1   6
BRANCH   3  15
ATOM     15  C   UNL     1     154.776 168.253 178.638 -0.17 -0.17    +0.214 C 
BRANCH  15  16
ATOM     16  N   UNL     1     155.884 167.430 178.216 -0.35 +0.12    -0.215 N 
ATOM     17  C   UNL     1     155.841 166.077 178.016 -0.28 -0.12    +0.247 C 
ATOM     18  O   UNL     1     154.916 165.326 178.294 -0.25 +0.12    -0.273 OA
ATOM     19  C   UNL     1     157.131 165.673 177.281 -0.39 -0.05    +0.113 C 
ATOM     20  C   UNL     1     157.812 164.436 177.852 -0.27 -0.01    +0.035 C 
ATOM     21  C   UNL     1     157.400 163.312 176.909 -0.36 -0.00    +0.003 C 
ATOM     22  C   UNL     1     157.377 163.979 175.544 -0.18 -0.00    +0.003 C 
ATOM     23  C   UNL     1     156.823 165.377 175.804 -0.34 -0.02    +0.035 C 
ATOM     24  N   UNL     1     157.893 166.888 177.452 -0.22 +0.12    -0.285 N 
ATOM     25  H   UNL     1     158.804 167.074 177.053 +0.11 -0.05    +0.151 HD
ATOM     26  C   UNL     1     157.098 167.927 177.875 -0.24 -0.17    +0.310 C 
ATOM     27  O   UNL     1     157.433 169.099 177.911 -0.42 +0.14    -0.252 OA
ENDBRANCH  15  16
ENDBRANCH   3  15
TORSDOF 4
TER
ENDMDL
