MODEL        1
USER    Run = 1
USER
USER    Estimated Free Energy of Binding    =  -4.38 kcal/mol  [=(1)+(2)+(3)-(4)]
USER
USER    (1) Final Intermolecular Energy     =  -5.57 kcal/mol
USER        vdW + Hbond + desolv Energy     =  -5.75 kcal/mol
USER        Electrostatic Energy            =  +0.18 kcal/mol
USER        Moving Ligand-Fixed Receptor    =  -5.57 kcal/mol
USER        Moving Ligand-Moving Receptor   =  +0.00 kcal/mol
USER    (2) Final Total Internal Energy     =  -1.22 kcal/mol
USER    (3) Torsional Free Energy           =  +1.19 kcal/mol
USER    (4) Unbound System's Energy         =  -1.22 kcal/mol
USER
USER
REMARK  Name = Z16336668
REMARK  4 active torsions:
REMARK  status: ('A' for Active; 'I' for Inactive)
REMARK    1  A    between atoms: C_6  and  O_7
REMARK    2  A    between atoms: O_7  and  C_8
REMARK    3  A    between atoms: C_8  and  C_9
REMARK    4  A    between atoms: C_9  and  N_10
REMARK                            x       y       z     vdW  Elec       q    Type
REMARK                         _______ _______ _______ _____ _____    ______ ____
USER                              x       y       z     vdW  Elec       q    Type
USER                           _______ _______ _______ _____ _____    ______ ____
ROOT
ATOM      1  N   UNL     1     150.179 165.928 180.003 -0.15 +0.07    -0.221 N 
ATOM      2  C   UNL     1     150.633 167.155 179.584 -0.06 -0.17    +0.251 C 
ATOM      3  O   UNL     1     150.259 167.769 178.590 -0.08 +0.27    -0.272 OA
ATOM      4  C   UNL     1     151.819 167.563 180.501 -0.19 -0.11    +0.144 C 
ATOM      5  C   UNL     1     153.123 167.333 179.758 -0.29 -0.02    +0.026 A 
ATOM      6  C   UNL     1     153.951 168.418 179.459 -0.19 -0.13    +0.126 A 
ATOM      7  C   UNL     1     155.135 168.226 178.740 -0.34 -0.04    +0.046 A 
ATOM      8  C   UNL     1     155.481 166.958 178.276 -0.46 -0.00    +0.004 A 
ATOM      9  C   UNL     1     154.660 165.871 178.549 -0.36 -0.00    +0.001 A 
ATOM     10  O   UNL     1     153.691 169.701 179.855 -0.16 +0.56    -0.491 OA
ATOM     11  C   UNL     1     152.316 169.978 180.124 -0.19 -0.22    +0.232 C 
ATOM     12  C   UNL     1     153.496 166.055 179.294 -0.33 -0.01    +0.010 A 
ATOM     13  C   UNL     1     151.705 168.964 181.074 -0.23 -0.08    +0.081 C 
ATOM     14  N   UNL     1     151.620 166.598 181.553 -0.12 +0.17    -0.281 N 
ATOM     15  H   UNL     1     152.242 166.462 182.337 +0.11 -0.10    +0.152 HD
ATOM     16  C   UNL     1     150.729 165.619 181.212 -0.22 -0.10    +0.310 C 
ATOM     17  O   UNL     1     150.567 164.634 181.908 -0.41 +0.03    -0.252 OA
ENDROOT
BRANCH   1  18
ATOM     18  C   UNL     1     149.332 165.088 179.166 -0.14 +0.01    +0.159 C 
BRANCH  18  19
ATOM     19  C   UNL     1     150.013 164.443 177.958 -0.15 -0.04    +0.248 C 
BRANCH  19  20
ATOM     20  O   UNL     1     151.425 164.353 178.161 -0.10 +0.15    -0.490 OA
BRANCH  20  24
ATOM     21 CL   UNL     1     155.481 161.191 177.835 -0.52 +0.04    -0.083 Cl
ATOM     22  C   UNL     1     153.800 161.543 177.705 -0.25 -0.02    +0.044 A 
ATOM     23  C   UNL     1     153.341 162.819 178.033 -0.19 -0.02    +0.065 A 
ATOM     24  C   UNL     1     151.983 163.123 177.916 -0.21 -0.03    +0.122 A 
ATOM     25  C   UNL     1     151.094 162.130 177.495 -0.17 -0.01    +0.045 A 
ATOM     26  C   UNL     1     151.558 160.852 177.167 -0.16 -0.00    +0.005 A 
ATOM     27  C   UNL     1     152.917 160.560 177.264 -0.19 -0.01    +0.020 A 
ENDBRANCH  20  24
ENDBRANCH  19  20
ENDBRANCH  18  19
ENDBRANCH   1  18
TORSDOF 4
TER
ENDMDL
