MODEL        1
USER    Run = 1
USER
USER    Estimated Free Energy of Binding    =  -5.75 kcal/mol  [=(1)+(2)+(3)-(4)]
USER
USER    (1) Final Intermolecular Energy     =  -7.24 kcal/mol
USER        vdW + Hbond + desolv Energy     =  -7.10 kcal/mol
USER        Electrostatic Energy            =  -0.14 kcal/mol
USER        Moving Ligand-Fixed Receptor    =  -7.24 kcal/mol
USER        Moving Ligand-Moving Receptor   =  +0.00 kcal/mol
USER    (2) Final Total Internal Energy     =  -1.42 kcal/mol
USER    (3) Torsional Free Energy           =  +1.49 kcal/mol
USER    (4) Unbound System's Energy         =  -1.42 kcal/mol
USER
USER
REMARK  Name = Z16305845
REMARK  6 active torsions:
REMARK  status: ('A' for Active; 'I' for Inactive)
REMARK    1  A    between atoms: C_1  and  C_2
REMARK    2  A    between atoms: C_2  and  S_3
REMARK    3  A    between atoms: C_2  and  C_19
REMARK    4  A    between atoms: S_3  and  C_4
REMARK    5  A    between atoms: C_7  and  C_8
REMARK    6  A    between atoms: N_15  and  C_16
REMARK                            x       y       z     vdW  Elec       q    Type
REMARK                         _______ _______ _______ _____ _____    ______ ____
USER                              x       y       z     vdW  Elec       q    Type
USER                           _______ _______ _______ _____ _____    ______ ____
ROOT
ATOM      1  S   UNL     1     165.542 171.161 171.289 -0.34 +0.00    -0.073 S 
ENDROOT
BRANCH   1   2
ATOM      2  C   UNL     1     164.379 170.115 172.006 -0.15 -0.05    +0.193 A 
ATOM      3  N   UNL     1     164.101 170.048 173.355 -0.15 +0.08    -0.299 N 
ATOM      4  C   UNL     1     162.940 169.290 173.465 -0.23 -0.03    +0.168 A 
ATOM      5  N   UNL     1     162.692 168.768 172.271 -0.34 +0.03    -0.128 NA
ATOM      6  N   UNL     1     163.577 169.300 171.358 -0.28 +0.04    -0.122 NA
BRANCH   4   7
ATOM      7  C   UNL     1     162.094 169.095 174.659 -0.27 -0.00    +0.054 A 
ATOM      8  C   UNL     1     162.266 168.033 175.560 -0.25 -0.01    +0.134 A 
ATOM      9  F   UNL     1     163.272 167.162 175.411 -0.11 +0.04    -0.205 F 
ATOM     10  C   UNL     1     161.433 167.853 176.664 -0.41 -0.00    +0.039 A 
ATOM     11  C   UNL     1     160.433 168.780 176.934 -0.49 -0.00    +0.003 A 
ATOM     12  C   UNL     1     160.283 169.885 176.099 -0.41 -0.00    +0.001 A 
ATOM     13  C   UNL     1     161.104 170.040 174.972 -0.42 -0.00    +0.014 A 
ENDBRANCH   4   7
BRANCH   3  14
ATOM     14  C   UNL     1     164.858 170.549 174.496 -0.13 -0.03    +0.091 C 
ATOM     15  C   UNL     1     165.270 172.007 174.574 -0.23 -0.01    +0.027 C 
ATOM     16  C   UNL     1     166.317 170.944 174.566 -0.20 -0.02    +0.027 C 
ENDBRANCH   3  14
ENDBRANCH   1   2
BRANCH   1  18
ATOM     17  C   UNL     1     163.760 171.953 169.263 -0.43 -0.01    +0.029 C 
ATOM     18  C   UNL     1     164.610 172.476 170.417 -0.25 -0.01    +0.137 C 
BRANCH  18  19
ATOM     19  C   UNL     1     165.660 173.450 169.833 -0.22 +0.05    +0.229 C 
ATOM     20  N   UNL     1     165.781 174.721 170.367 -0.12 -0.01    -0.296 N 
ATOM     21  C   UNL     1     166.956 175.519 170.018 -0.18 +0.01    +0.143 C 
ATOM     22  C   UNL     1     167.701 175.980 171.257 -0.12 +0.00    -0.027 A 
ATOM     23  C   UNL     1     167.080 175.990 172.523 -0.04 +0.01    -0.041 A 
ATOM     24  C   UNL     1     167.805 176.412 173.645 +0.00 -0.00    +0.004 A 
ATOM     25  C   UNL     1     169.126 176.837 173.516 -0.08 -0.00    +0.000 A 
ATOM     26  C   UNL     1     169.734 176.852 172.263 -0.11 -0.00    +0.000 A 
ATOM     27  C   UNL     1     165.668 175.475 172.698 -0.10 -0.01    +0.054 C 
ATOM     28  C   UNL     1     169.026 176.430 171.138 -0.12 -0.00    +0.005 A 
ATOM     29  C   UNL     1     164.923 175.342 171.370 -0.03 -0.02    +0.113 C 
ATOM     30  O   UNL     1     166.358 173.122 168.867 -0.91 -0.18    -0.274 OA
ENDBRANCH  18  19
ENDBRANCH   1  18
TORSDOF 5
TER
ENDMDL
