MODEL        1
USER    Run = 1
USER
USER    Estimated Free Energy of Binding    =  -5.23 kcal/mol  [=(1)+(2)+(3)-(4)]
USER
USER    (1) Final Intermolecular Energy     =  -6.72 kcal/mol
USER        vdW + Hbond + desolv Energy     =  -6.24 kcal/mol
USER        Electrostatic Energy            =  -0.48 kcal/mol
USER        Moving Ligand-Fixed Receptor    =  -6.72 kcal/mol
USER        Moving Ligand-Moving Receptor   =  +0.00 kcal/mol
USER    (2) Final Total Internal Energy     =  -2.56 kcal/mol
USER    (3) Torsional Free Energy           =  +1.49 kcal/mol
USER    (4) Unbound System's Energy         =  -2.56 kcal/mol
USER
USER
REMARK  Name = Z16325435
REMARK  6 active torsions:
REMARK  status: ('A' for Active; 'I' for Inactive)
REMARK    1  A    between atoms: C_1  and  C_2
REMARK    2  A    between atoms: C_6  and  C_8
REMARK    3  A    between atoms: C_8  and  N_9
REMARK    4  A    between atoms: C_13  and  C_14
REMARK    5  A    between atoms: C_13  and  C_23
REMARK    6  A    between atoms: C_14  and  C_15
REMARK                            x       y       z     vdW  Elec       q    Type
REMARK                         _______ _______ _______ _____ _____    ______ ____
USER                              x       y       z     vdW  Elec       q    Type
USER                           _______ _______ _______ _____ _____    ______ ____
ROOT
ATOM      1  N   UNL     1     165.026 172.232 175.566 -0.05 +0.05    -0.215 N 
ATOM      2  C   UNL     1     164.215 172.370 174.476 -0.07 -0.04    +0.252 C 
ATOM      3  O   UNL     1     163.176 173.020 174.459 -0.05 -0.01    -0.272 OA
ATOM      4  C   UNL     1     164.846 171.623 173.267 -0.19 -0.04    +0.142 C 
ATOM      5  N   UNL     1     166.006 171.080 173.950 -0.11 +0.16    -0.281 N 
ATOM      6  H   UNL     1     166.705 170.490 173.517 -0.29 -0.20    +0.152 HD
ATOM      7  C   UNL     1     166.092 171.447 175.266 +0.08 -0.16    +0.310 C 
ATOM      8  O   UNL     1     166.988 171.098 176.010 -0.34 +0.18    -0.252 OA
ENDROOT
BRANCH   4   9
ATOM      9  C   UNL     1     165.221 172.630 172.178 -0.17 +0.00    -0.015 A 
ATOM     10  C   UNL     1     165.187 172.254 170.821 -0.26 +0.00    +0.006 A 
ATOM     11  C   UNL     1     165.528 173.157 169.811 -0.35 +0.00    +0.000 A 
ATOM     12  C   UNL     1     165.895 174.459 170.133 -0.29 +0.00    +0.000 A 
ATOM     13  C   UNL     1     165.919 174.859 171.465 -0.17 -0.00    +0.000 A 
ATOM     14  C   UNL     1     165.586 173.955 172.477 -0.11 -0.00    +0.006 A 
ENDBRANCH   4   9
BRANCH   1  15
ATOM     15  C   UNL     1     164.753 172.742 176.895 +0.09 -0.03    +0.214 C 
BRANCH  15  23
ATOM     16  C   UNL     1     163.806 179.468 173.855 -0.02 -0.03    +0.089 C 
ATOM     17  C   UNL     1     163.924 178.219 174.627 +0.04 -0.01    +0.136 A 
ATOM     18  O   UNL     1     163.599 178.300 175.942 -0.41 -0.24    -0.358 OA
ATOM     19  N   UNL     1     163.769 177.068 176.532 -0.63 -0.05    -0.063 NA
ATOM     20  C   UNL     1     164.189 176.238 175.574 -0.02 +0.06    +0.168 A 
ATOM     21  N   UNL     1     164.492 174.897 175.742 -0.06 -0.06    -0.266 N 
ATOM     22  H   UNL     1     164.782 174.396 174.916 +0.08 -0.00    +0.156 HD
ATOM     23  C   UNL     1     164.374 174.224 176.944 -0.15 +0.06    +0.236 C 
ATOM     24  O   UNL     1     163.872 174.676 177.973 -0.47 -0.12    -0.274 OA
ATOM     25  C   UNL     1     164.301 176.929 174.340 -0.04 -0.01    +0.091 A 
ENDBRANCH  15  23
ENDBRANCH   1  15
BRANCH   4  26
ATOM     26  C   UNL     1     163.882 170.490 172.824 -0.23 -0.02    +0.075 C 
BRANCH  26  27
ATOM     27  C   UNL     1     163.285 169.694 173.968 -0.30 +0.01    -0.044 A 
ATOM     28  C   UNL     1     162.101 170.114 174.589 -0.35 -0.00    +0.003 A 
ATOM     29  C   UNL     1     161.524 169.352 175.606 -0.40 -0.00    +0.000 A 
ATOM     30  C   UNL     1     162.123 168.164 176.017 -0.31 -0.00    +0.000 A 
ATOM     31  C   UNL     1     163.313 167.747 175.424 -0.31 -0.00    +0.000 A 
ATOM     32  C   UNL     1     163.895 168.509 174.409 -0.40 -0.00    +0.003 A 
ENDBRANCH  26  27
ENDBRANCH   4  26
TORSDOF 5
TER
ENDMDL
