MODEL        1
USER    Run = 1
USER
USER    Estimated Free Energy of Binding    =  -4.80 kcal/mol  [=(1)+(2)+(3)-(4)]
USER
USER    (1) Final Intermolecular Energy     =  -5.70 kcal/mol
USER        vdW + Hbond + desolv Energy     =  -5.68 kcal/mol
USER        Electrostatic Energy            =  -0.01 kcal/mol
USER        Moving Ligand-Fixed Receptor    =  -5.70 kcal/mol
USER        Moving Ligand-Moving Receptor   =  +0.00 kcal/mol
USER    (2) Final Total Internal Energy     =  -1.36 kcal/mol
USER    (3) Torsional Free Energy           =  +0.89 kcal/mol
USER    (4) Unbound System's Energy         =  -1.36 kcal/mol
USER
USER
REMARK  Name = Z16394549
REMARK  3 active torsions:
REMARK  status: ('A' for Active; 'I' for Inactive)
REMARK    1  A    between atoms: C_2  and  C_3
REMARK    2  A    between atoms: C_3  and  N_4
REMARK    3  A    between atoms: N_16  and  C_17
REMARK                            x       y       z     vdW  Elec       q    Type
REMARK                         _______ _______ _______ _____ _____    ______ ____
USER                              x       y       z     vdW  Elec       q    Type
USER                           _______ _______ _______ _____ _____    ______ ____
ROOT
ATOM      1  N   UNL     1     163.432 168.515 174.901 -0.20 +0.05    -0.215 N 
ATOM      2  C   UNL     1     162.857 169.438 174.074 -0.23 -0.04    +0.247 C 
ATOM      3  O   UNL     1     161.659 169.524 173.835 -0.27 +0.01    -0.273 OA
ATOM      4  C   UNL     1     163.941 170.355 173.477 -0.27 -0.03    +0.113 C 
ATOM      5  C   UNL     1     163.885 171.785 174.021 -0.12 -0.01    +0.035 C 
ATOM      6  C   UNL     1     164.957 172.664 173.369 -0.21 -0.00    +0.002 C 
ATOM      7  C   UNL     1     164.865 172.641 171.844 -0.23 -0.00    +0.000 C 
ATOM      8  C   UNL     1     164.879 171.223 171.281 -0.34 -0.00    +0.002 C 
ATOM      9  C   UNL     1     163.833 170.334 171.949 -0.14 -0.01    +0.035 C 
ATOM     10  N   UNL     1     165.104 169.670 173.979 -0.18 +0.12    -0.285 N 
ATOM     11  H   UNL     1     166.071 169.889 173.768 -0.11 -0.13    +0.151 HD
ATOM     12  C   UNL     1     164.791 168.616 174.801 -0.05 -0.11    +0.310 C 
ATOM     13  O   UNL     1     165.633 167.877 175.288 +0.01 +0.10    -0.252 OA
ENDROOT
BRANCH   1  14
ATOM     14  C   UNL     1     162.803 167.274 175.338 -0.24 -0.03    +0.213 C 
BRANCH  14  16
ATOM     15  O   UNL     1     161.839 166.491 177.413 -0.34 +0.04    -0.274 OA
ATOM     16  C   UNL     1     161.763 167.279 176.471 -0.22 -0.02    +0.231 C 
ATOM     17  N   UNL     1     160.659 168.077 176.295 -0.15 +0.03    -0.309 N 
ATOM     18  H   UNL     1     160.510 168.456 175.357 +0.15 +0.01    +0.149 HD
BRANCH  17  19
ATOM     19  C   UNL     1     159.529 168.118 177.217 -0.43 -0.03    +0.095 C 
ATOM     20  C   UNL     1     158.815 166.768 177.351 -0.07 -0.05    +0.188 C 
ATOM     21  S   UNL     1     157.079 167.148 177.533 -0.67 +0.02    -0.029 S 
ATOM     22  O   UNL     1     156.633 166.765 178.855 -0.35 +0.07    -0.174 OA
ATOM     23  O   UNL     1     156.386 166.717 176.335 -0.43 +0.13    -0.174 OA
ATOM     24  C   UNL     1     157.231 168.917 177.476 -0.27 -0.11    +0.168 C 
ATOM     25  C   UNL     1     158.520 169.155 176.718 -0.33 -0.02    +0.046 C 
ENDBRANCH  17  19
ENDBRANCH  14  16
ENDBRANCH   1  14
TORSDOF 3
TER
ENDMDL
