MODEL        1
USER    Run = 1
USER
USER    Estimated Free Energy of Binding    =  -6.04 kcal/mol  [=(1)+(2)+(3)-(4)]
USER
USER    (1) Final Intermolecular Energy     =  -7.24 kcal/mol
USER        vdW + Hbond + desolv Energy     =  -7.22 kcal/mol
USER        Electrostatic Energy            =  -0.01 kcal/mol
USER        Moving Ligand-Fixed Receptor    =  -7.24 kcal/mol
USER        Moving Ligand-Moving Receptor   =  +0.00 kcal/mol
USER    (2) Final Total Internal Energy     =  -0.47 kcal/mol
USER    (3) Torsional Free Energy           =  +1.19 kcal/mol
USER    (4) Unbound System's Energy         =  -0.47 kcal/mol
USER
USER
REMARK  Name = Z16394339
REMARK  4 active torsions:
REMARK  status: ('A' for Active; 'I' for Inactive)
REMARK    1  A    between atoms: N_12  and  C_13
REMARK    2  A    between atoms: C_13  and  C_14
REMARK    3  A    between atoms: C_14  and  C_15
REMARK    4  A    between atoms: C_15  and  C_16
REMARK                            x       y       z     vdW  Elec       q    Type
REMARK                         _______ _______ _______ _____ _____    ______ ____
USER                              x       y       z     vdW  Elec       q    Type
USER                           _______ _______ _______ _____ _____    ______ ____
ROOT
ATOM      1  O   UNL     1     160.079 170.431 175.515 -0.41 +0.00    -0.252 OA
ATOM      2  C   UNL     1     161.087 169.795 175.256 -0.25 -0.01    +0.309 C 
ATOM      3  N   UNL     1     161.591 168.720 175.918 -0.25 +0.02    -0.224 N 
ATOM      4  C   UNL     1     162.673 168.208 175.254 -0.22 -0.03    +0.246 C 
ATOM      5  O   UNL     1     163.304 167.204 175.559 -0.30 +0.06    -0.273 OA
ATOM      6  C   UNL     1     163.015 169.147 174.085 -0.34 -0.02    +0.113 C 
ATOM      7  C   UNL     1     162.991 168.426 172.738 -0.41 -0.01    +0.035 C 
ATOM      8  C   UNL     1     163.393 169.370 171.603 -0.36 -0.00    +0.002 C 
ATOM      9  C   UNL     1     164.744 170.032 171.866 -0.28 -0.00    +0.000 C 
ATOM     10  C   UNL     1     164.791 170.737 173.219 -0.35 -0.00    +0.002 C 
ATOM     11  C   UNL     1     164.369 169.811 174.356 -0.24 -0.01    +0.035 C 
ATOM     12  N   UNL     1     161.915 170.080 174.197 -0.18 +0.02    -0.285 N 
ATOM     13  H   UNL     1     161.706 170.842 173.566 +0.17 -0.01    +0.151 HD
ENDROOT
BRANCH   3  14
ATOM     14  C   UNL     1     161.070 168.209 177.169 -0.43 -0.02    +0.118 C 
BRANCH  14  15
ATOM     15  C   UNL     1     159.741 167.469 176.980 -0.40 -0.00    +0.024 C 
BRANCH  15  16
ATOM     16  C   UNL     1     158.518 168.388 177.076 -0.51 -0.02    +0.037 C 
BRANCH  16  17
ATOM     17  C   UNL     1     157.285 167.612 177.471 -0.43 +0.03    -0.047 A 
ATOM     18  C   UNL     1     157.182 166.249 177.174 -0.44 -0.00    +0.003 A 
ATOM     19  C   UNL     1     156.056 165.523 177.568 -0.36 -0.00    +0.000 A 
ATOM     20  C   UNL     1     155.029 166.153 178.268 -0.37 -0.00    +0.000 A 
ATOM     21  C   UNL     1     155.123 167.510 178.571 -0.45 -0.00    +0.000 A 
ATOM     22  C   UNL     1     156.247 168.238 178.177 -0.43 -0.00    +0.003 A 
ENDBRANCH  16  17
ENDBRANCH  15  16
ENDBRANCH  14  15
ENDBRANCH   3  14
TORSDOF 4
TER
ENDMDL
