MODEL        1
USER    Run = 1
USER
USER    Estimated Free Energy of Binding    =  -6.12 kcal/mol  [=(1)+(2)+(3)-(4)]
USER
USER    (1) Final Intermolecular Energy     =  -7.91 kcal/mol
USER        vdW + Hbond + desolv Energy     =  -7.84 kcal/mol
USER        Electrostatic Energy            =  -0.08 kcal/mol
USER        Moving Ligand-Fixed Receptor    =  -7.91 kcal/mol
USER        Moving Ligand-Moving Receptor   =  +0.00 kcal/mol
USER    (2) Final Total Internal Energy     =  -0.95 kcal/mol
USER    (3) Torsional Free Energy           =  +1.79 kcal/mol
USER    (4) Unbound System's Energy         =  -0.95 kcal/mol
USER
USER
REMARK  Name = Z16318752
REMARK  7 active torsions:
REMARK  status: ('A' for Active; 'I' for Inactive)
REMARK    1  A    between atoms: C_1  and  N_2
REMARK    2  A    between atoms: N_2  and  C_3
REMARK    3  A    between atoms: N_2  and  S_19
REMARK    4  A    between atoms: C_6  and  O_7
REMARK    5  A    between atoms: O_7  and  C_8
REMARK    6  A    between atoms: C_8  and  C_9
REMARK    7  A    between atoms: S_19  and  C_22
REMARK                            x       y       z     vdW  Elec       q    Type
REMARK                         _______ _______ _______ _____ _____    ______ ____
USER                              x       y       z     vdW  Elec       q    Type
USER                           _______ _______ _______ _____ _____    ______ ____
ROOT
ATOM      1  C   UNL     1     158.350 168.052 177.003 -0.36 -0.02    +0.051 A 
ATOM      2  C   UNL     1     158.458 166.658 177.014 -0.26 -0.01    +0.028 A 
ATOM      3  C   UNL     1     157.388 165.864 177.453 -0.38 -0.02    +0.047 A 
ATOM      4  C   UNL     1     156.213 166.468 177.895 -0.35 -0.06    +0.121 A 
ATOM      5  C   UNL     1     156.139 167.862 177.951 -0.45 -0.03    +0.047 A 
ATOM      6  C   UNL     1     157.198 168.656 177.502 -0.41 -0.02    +0.028 A 
ENDROOT
BRANCH   1   8
ATOM      7  C   UNL     1     158.920 170.026 175.642 +0.04 -0.03    +0.157 C 
ATOM      8  N   UNL     1     159.374 168.814 176.349 -0.31 +0.04    -0.206 N 
BRANCH   8   9
ATOM      9  S   UNL     1     160.941 168.849 177.018 -0.60 -0.01    +0.074 S 
ATOM     10  O   UNL     1     161.182 167.564 177.649 -0.48 +0.03    -0.150 OA
ATOM     11  O   UNL     1     161.119 170.079 177.755 -0.37 +0.02    -0.150 OA
BRANCH   9  12
ATOM     12  C   UNL     1     162.018 168.915 175.591 -0.19 -0.01    +0.109 A 
ATOM     13  C   UNL     1     162.760 167.781 175.230 -0.35 -0.00    +0.031 A 
ATOM     14  C   UNL     1     163.550 167.812 174.081 -0.40 -0.01    +0.040 A 
ATOM     15  C   UNL     1     163.621 168.982 173.331 -0.29 -0.03    +0.123 A 
ATOM     16  F   UNL     1     164.352 169.000 172.210 +0.00 +0.05    -0.205 F 
ATOM     17  C   UNL     1     162.946 170.133 173.727 -0.21 -0.01    +0.040 A 
ATOM     18  C   UNL     1     162.145 170.108 174.871 -0.32 -0.00    +0.031 A 
ENDBRANCH   9  12
ENDBRANCH   8   9
ENDBRANCH   1   8
BRANCH   4  19
ATOM     19  O   UNL     1     155.092 165.820 178.333 -0.12 +0.23    -0.483 OA
BRANCH  19  20
ATOM     20  C   UNL     1     154.100 166.610 178.984 -0.20 -0.22    +0.324 C 
BRANCH  20  21
ATOM     21  C   UNL     1     152.959 165.703 179.454 -0.20 -0.14    +0.253 C 
ATOM     22  N   UNL     1     152.422 165.932 180.714 -0.14 +0.15    -0.294 N 
ATOM     23  C   UNL     1     151.297 165.126 181.200 -0.34 -0.04    +0.136 C 
ATOM     24  C   UNL     1     150.124 166.031 181.597 -0.30 -0.07    +0.178 C 
ATOM     25  O   UNL     1     150.535 167.044 182.533 -0.15 +0.28    -0.377 OA
ATOM     26  C   UNL     1     151.581 167.859 181.977 -0.21 -0.15    +0.178 C 
ATOM     27  C   UNL     1     152.806 167.006 181.634 -0.27 -0.11    +0.136 C 
ATOM     28  O   UNL     1     152.564 164.780 178.736 -0.24 +0.11    -0.272 OA
ENDBRANCH  20  21
ENDBRANCH  19  20
ENDBRANCH   4  19
TORSDOF 6
TER
ENDMDL
