MODEL        1
USER    Run = 1
USER
USER    Estimated Free Energy of Binding    =  -4.26 kcal/mol  [=(1)+(2)+(3)-(4)]
USER
USER    (1) Final Intermolecular Energy     =  -4.85 kcal/mol
USER        vdW + Hbond + desolv Energy     =  -4.95 kcal/mol
USER        Electrostatic Energy            =  +0.10 kcal/mol
USER        Moving Ligand-Fixed Receptor    =  -4.85 kcal/mol
USER        Moving Ligand-Moving Receptor   =  +0.00 kcal/mol
USER    (2) Final Total Internal Energy     =  -0.71 kcal/mol
USER    (3) Torsional Free Energy           =  +0.60 kcal/mol
USER    (4) Unbound System's Energy         =  -0.71 kcal/mol
USER
USER
REMARK  Name = Z16396018
REMARK  2 active torsions:
REMARK  status: ('A' for Active; 'I' for Inactive)
REMARK    1  A    between atoms: C_8  and  C_9
REMARK    2  A    between atoms: C_9  and  N_10
REMARK                            x       y       z     vdW  Elec       q    Type
REMARK                         _______ _______ _______ _____ _____    ______ ____
USER                              x       y       z     vdW  Elec       q    Type
USER                           _______ _______ _______ _____ _____    ______ ____
ROOT
ATOM      1  N   UNL     1     164.472 169.877 172.430 -0.22 +0.06    -0.220 N 
ATOM      2  C   UNL     1     164.510 169.224 173.635 -0.25 -0.08    +0.247 C 
ATOM      3  O   UNL     1     165.421 169.248 174.448 -0.32 +0.14    -0.273 OA
ATOM      4  C   UNL     1     163.146 168.541 173.831 -0.36 -0.02    +0.113 C 
ATOM      5  C   UNL     1     163.178 167.180 174.512 -0.35 -0.01    +0.035 C 
ATOM      6  C   UNL     1     162.832 167.485 175.964 -0.42 -0.00    +0.003 C 
ATOM      7  C   UNL     1     161.787 168.584 175.857 -0.40 -0.00    +0.003 C 
ATOM      8  C   UNL     1     162.252 169.451 174.693 -0.40 -0.00    +0.035 C 
ATOM      9  N   UNL     1     162.725 168.503 172.457 -0.20 +0.06    -0.285 N 
ATOM     10  H   UNL     1     161.865 168.100 172.103 +0.08 -0.04    +0.151 HD
ATOM     11  C   UNL     1     163.457 169.365 171.675 -0.11 -0.09    +0.310 C 
ATOM     12  O   UNL     1     163.209 169.581 170.501 -0.25 +0.11    -0.252 OA
ENDROOT
BRANCH   1  13
ATOM     13  C   UNL     1     165.497 170.781 171.946 -0.19 -0.04    +0.157 C 
BRANCH  13  16
ATOM     14  F   UNL     1     164.774 172.099 174.316 +0.01 +0.05    -0.205 F 
ATOM     15  C   UNL     1     164.779 172.833 173.195 -0.05 -0.03    +0.130 A 
ATOM     16  C   UNL     1     165.051 172.223 171.964 -0.20 -0.00    +0.024 A 
ATOM     17  C   UNL     1     164.968 173.019 170.815 -0.22 -0.00    +0.048 A 
ATOM     18 CL   UNL     1     165.173 172.360 169.231 -0.60 -0.00    -0.083 Cl
ATOM     19  C   UNL     1     164.713 174.396 170.908 -0.21 -0.00    +0.020 A 
ATOM     20  C   UNL     1     164.513 174.989 172.156 -0.16 -0.00    +0.004 A 
ATOM     21  C   UNL     1     164.521 174.198 173.298 -0.11 -0.01    +0.039 A 
ENDBRANCH  13  16
ENDBRANCH   1  13
TORSDOF 2
TER
ENDMDL
