MODEL        1
USER    Run = 1
USER
USER    Estimated Free Energy of Binding    =  -4.32 kcal/mol  [=(1)+(2)+(3)-(4)]
USER
USER    (1) Final Intermolecular Energy     =  -5.52 kcal/mol
USER        vdW + Hbond + desolv Energy     =  -5.54 kcal/mol
USER        Electrostatic Energy            =  +0.02 kcal/mol
USER        Moving Ligand-Fixed Receptor    =  -5.52 kcal/mol
USER        Moving Ligand-Moving Receptor   =  +0.00 kcal/mol
USER    (2) Final Total Internal Energy     =  -1.70 kcal/mol
USER    (3) Torsional Free Energy           =  +1.19 kcal/mol
USER    (4) Unbound System's Energy         =  -1.70 kcal/mol
USER
USER
REMARK  Name = Z16396137
REMARK  6 active torsions:
REMARK  status: ('A' for Active; 'I' for Inactive)
REMARK    1  A    between atoms: C_1  and  C_2
REMARK    2  A    between atoms: C_2  and  N_3
REMARK    3  A    between atoms: C_2  and  C_19
REMARK    4  A    between atoms: C_4  and  C_6
REMARK    5  A    between atoms: C_6  and  C_7
REMARK    6  A    between atoms: C_6  and  N_8
REMARK                            x       y       z     vdW  Elec       q    Type
REMARK                         _______ _______ _______ _____ _____    ______ ____
USER                              x       y       z     vdW  Elec       q    Type
USER                           _______ _______ _______ _____ _____    ______ ____
ROOT
ATOM      1  N   UNL     1     164.710 172.184 172.215 -0.04 +0.06    -0.307 N 
ATOM      2  H   UNL     1     164.713 172.746 173.060 +0.09 -0.03    +0.149 HD
ATOM      3  C   UNL     1     164.392 170.839 172.316 -0.15 -0.06    +0.234 C 
ATOM      4  O   UNL     1     164.105 170.162 171.331 -0.23 +0.08    -0.274 OA
ENDROOT
BRANCH   1   6
ATOM      5  C   UNL     1     165.246 171.983 169.808 -0.34 +0.00    +0.033 C 
ATOM      6  C   UNL     1     164.649 172.861 170.920 -0.22 -0.01    +0.102 C 
BRANCH   6   7
ATOM      7  C   UNL     1     165.362 174.209 170.955 -0.23 +0.00    -0.009 A 
ATOM      8  C   UNL     1     165.010 175.238 171.853 -0.11 -0.01    +0.047 A 
ATOM      9 CL   UNL     1     163.790 175.035 173.062 -0.27 +0.02    -0.083 Cl
ATOM     10  C   UNL     1     165.633 176.488 171.796 -0.05 -0.01    +0.040 A 
ATOM     11  C   UNL     1     166.614 176.732 170.841 -0.14 -0.00    +0.042 A 
ATOM     12 CL   UNL     1     167.361 178.279 170.756 -0.21 +0.01    -0.084 Cl
ATOM     13  C   UNL     1     166.990 175.734 169.950 -0.23 +0.00    +0.020 A 
ATOM     14  C   UNL     1     166.373 174.481 170.010 -0.27 +0.00    +0.008 A 
ENDBRANCH   6   7
ENDBRANCH   1   6
BRANCH   3  15
ATOM     15  C   UNL     1     164.518 170.237 173.725 -0.25 -0.05    +0.168 C 
ATOM     16  C   UNL     1     165.752 170.769 174.445 -0.30 -0.02    +0.038 C 
BRANCH  15  17
ATOM     17  N   UNL     1     163.260 170.497 174.424 -0.16 +0.04    -0.212 N 
ATOM     18  C   UNL     1     162.283 169.580 174.712 -0.22 -0.03    +0.247 C 
ATOM     19  O   UNL     1     162.228 168.414 174.348 -0.18 +0.02    -0.273 OA
ATOM     20  C   UNL     1     161.277 170.231 175.673 -0.41 -0.00    +0.113 C 
ATOM     21  C   UNL     1     159.824 170.093 175.225 -0.47 -0.00    +0.035 C 
ATOM     22  C   UNL     1     159.241 169.017 176.134 -0.33 -0.00    +0.003 C 
ATOM     23  C   UNL     1     159.958 169.229 177.456 -0.49 -0.00    +0.003 C 
ATOM     24  C   UNL     1     161.387 169.592 177.065 -0.03 -0.00    +0.035 C 
ATOM     25  N   UNL     1     161.756 171.589 175.641 -0.22 -0.03    -0.285 N 
ATOM     26  H   UNL     1     161.369 172.367 176.161 +0.08 +0.06    +0.151 HD
ATOM     27  C   UNL     1     162.960 171.696 174.988 -0.00 -0.02    +0.310 C 
ATOM     28  O   UNL     1     163.626 172.717 174.951 -0.17 +0.00    -0.252 OA
ENDBRANCH  15  17
ENDBRANCH   3  15
TORSDOF 4
TER
ENDMDL
