MODEL        1
USER    Run = 1
USER
USER    Estimated Free Energy of Binding    =  -5.85 kcal/mol  [=(1)+(2)+(3)-(4)]
USER
USER    (1) Final Intermolecular Energy     =  -7.05 kcal/mol
USER        vdW + Hbond + desolv Energy     =  -7.05 kcal/mol
USER        Electrostatic Energy            =  +0.00 kcal/mol
USER        Moving Ligand-Fixed Receptor    =  -7.05 kcal/mol
USER        Moving Ligand-Moving Receptor   =  +0.00 kcal/mol
USER    (2) Final Total Internal Energy     =  -1.37 kcal/mol
USER    (3) Torsional Free Energy           =  +1.19 kcal/mol
USER    (4) Unbound System's Energy         =  -1.37 kcal/mol
USER
USER
REMARK  Name = Z16422164
REMARK  4 active torsions:
REMARK  status: ('A' for Active; 'I' for Inactive)
REMARK    1  A    between atoms: C_2  and  C_3
REMARK    2  A    between atoms: C_3  and  N_4
REMARK    3  A    between atoms: C_7  and  C_9
REMARK    4  A    between atoms: N_15  and  C_16
REMARK                            x       y       z     vdW  Elec       q    Type
REMARK                         _______ _______ _______ _____ _____    ______ ____
USER                              x       y       z     vdW  Elec       q    Type
USER                           _______ _______ _______ _____ _____    ______ ____
ROOT
ATOM      1  O   UNL     1     152.862 167.052 179.593 -0.20 +0.24    -0.273 OA
ATOM      2  C   UNL     1     153.957 166.753 179.119 -0.26 -0.18    +0.240 C 
ATOM      3  N   UNL     1     154.273 165.549 178.511 -0.19 +0.14    -0.284 N 
ATOM      4  H   UNL     1     155.203 165.469 178.106 +0.10 -0.07    +0.155 HD
ENDROOT
BRANCH   3   5
ATOM      5  C   UNL     1     153.426 164.442 178.285 -0.27 -0.01    +0.034 A 
ATOM      6  C   UNL     1     154.044 163.185 178.215 -0.18 -0.01    +0.027 A 
ATOM      7  C   UNL     1     153.270 162.056 177.984 -0.24 +0.02    -0.042 A 
ATOM      8  C   UNL     1     151.894 162.155 177.819 -0.21 +0.01    -0.044 A 
ATOM      9  C   UNL     1     151.268 160.825 177.567 -0.16 -0.01    +0.036 C 
ATOM     10  C   UNL     1     152.462 159.857 177.583 -0.22 -0.00    +0.009 C 
ATOM     11  C   UNL     1     151.262 163.385 177.893 -0.25 -0.00    +0.006 A 
ATOM     12  C   UNL     1     153.744 160.645 177.890 -0.31 -0.02    +0.036 C 
ATOM     13  C   UNL     1     152.034 164.530 178.133 -0.28 -0.01    +0.023 A 
ENDBRANCH   3   5
BRANCH   2  14
ATOM     14  C   UNL     1     155.126 167.694 179.276 -0.22 -0.20    +0.264 C 
BRANCH  14  15
ATOM     15  N   UNL     1     156.172 167.475 178.302 -0.40 +0.09    -0.154 N 
ATOM     16  N   UNL     1     156.896 168.509 177.838 -0.44 +0.08    -0.130 NA
ATOM     17  C   UNL     1     157.956 167.866 177.318 -0.23 -0.10    +0.205 A 
ATOM     18  N   UNL     1     157.867 166.501 177.481 -0.36 +0.04    -0.108 NA
ATOM     19  N   UNL     1     156.741 166.263 178.143 -0.40 +0.02    -0.045 NA
BRANCH  17  20
ATOM     20  C   UNL     1     159.113 168.543 176.742 -0.44 -0.01    +0.023 A 
ATOM     21  C   UNL     1     160.399 168.005 176.916 -0.45 -0.00    +0.012 A 
ATOM     22  C   UNL     1     161.513 168.603 176.324 -0.39 -0.00    +0.001 A 
ATOM     23  C   UNL     1     161.357 169.751 175.552 -0.43 -0.00    +0.000 A 
ATOM     24  C   UNL     1     160.089 170.306 175.381 -0.45 -0.00    +0.001 A 
ATOM     25  C   UNL     1     158.971 169.707 175.974 -0.16 -0.00    +0.012 A 
ENDBRANCH  17  20
ENDBRANCH  14  15
ENDBRANCH   2  14
TORSDOF 4
TER
ENDMDL
