MODEL        1
USER    Run = 1
USER
USER    Estimated Free Energy of Binding    =  -6.45 kcal/mol  [=(1)+(2)+(3)-(4)]
USER
USER    (1) Final Intermolecular Energy     =  -7.34 kcal/mol
USER        vdW + Hbond + desolv Energy     =  -7.34 kcal/mol
USER        Electrostatic Energy            =  +0.00 kcal/mol
USER        Moving Ligand-Fixed Receptor    =  -7.34 kcal/mol
USER        Moving Ligand-Moving Receptor   =  +0.00 kcal/mol
USER    (2) Final Total Internal Energy     =  -0.60 kcal/mol
USER    (3) Torsional Free Energy           =  +0.89 kcal/mol
USER    (4) Unbound System's Energy         =  -0.60 kcal/mol
USER
USER
REMARK  Name = Z16422188
REMARK  3 active torsions:
REMARK  status: ('A' for Active; 'I' for Inactive)
REMARK    1  A    between atoms: C_4  and  C_5
REMARK    2  A    between atoms: C_5  and  N_6
REMARK    3  A    between atoms: C_9  and  C_11
REMARK                            x       y       z     vdW  Elec       q    Type
REMARK                         _______ _______ _______ _____ _____    ______ ____
USER                              x       y       z     vdW  Elec       q    Type
USER                           _______ _______ _______ _____ _____    ______ ____
ROOT
ATOM      1  C   UNL     1     158.123 168.980 177.459 -0.29 -0.10    +0.223 C 
ENDROOT
BRANCH   1   9
ATOM      2  O   UNL     1     156.375 164.440 177.014 -0.23 +0.13    -0.267 OA
ATOM      3  C   UNL     1     156.244 165.575 177.463 -0.25 -0.12    +0.259 C 
ATOM      4  N   UNL     1     155.193 166.014 178.226 -0.23 +0.13    -0.262 N 
ATOM      5  C   UNL     1     155.155 167.312 178.673 -0.30 -0.12    +0.180 A 
ATOM      6  S   UNL     1     153.694 167.556 179.614 -0.48 +0.05    -0.058 S 
ATOM      7  C   UNL     1     153.218 165.900 179.352 -0.28 -0.04    +0.067 A 
ATOM      8  N   UNL     1     156.040 168.222 178.450 -0.32 +0.14    -0.226 NA
ATOM      9  C   UNL     1     157.130 167.848 177.682 -0.48 -0.04    +0.072 C 
ATOM     10  C   UNL     1     154.116 165.244 178.608 -0.24 -0.05    +0.104 A 
ATOM     11  C   UNL     1     157.275 166.603 177.189 -0.44 -0.05    +0.096 C 
ENDBRANCH   1   9
BRANCH   1  12
ATOM     12  N   UNL     1     159.468 168.586 177.075 -0.41 +0.04    -0.157 N 
ATOM     13  N   UNL     1     160.072 169.063 175.969 -0.34 +0.01    -0.130 NA
ATOM     14  C   UNL     1     161.290 168.504 176.098 -0.19 -0.01    +0.205 A 
ATOM     15  N   UNL     1     161.386 167.714 177.222 -0.42 +0.01    -0.108 NA
ATOM     16  N   UNL     1     160.215 167.774 177.839 -0.30 +0.01    -0.045 NA
BRANCH  14  17
ATOM     17  C   UNL     1     162.398 168.706 175.169 -0.29 -0.00    +0.023 A 
ATOM     18  C   UNL     1     162.533 169.915 174.470 -0.32 -0.00    +0.012 A 
ATOM     19  C   UNL     1     163.598 170.113 173.586 -0.30 -0.00    +0.001 A 
ATOM     20  C   UNL     1     164.539 169.104 173.392 -0.36 -0.00    +0.000 A 
ATOM     21  C   UNL     1     164.418 167.898 174.079 -0.45 -0.00    +0.001 A 
ATOM     22  C   UNL     1     163.353 167.699 174.964 -0.40 -0.00    +0.012 A 
ENDBRANCH  14  17
ENDBRANCH   1  12
TORSDOF 3
TER
ENDMDL
