MODEL        1
USER    Run = 1
USER
USER    Estimated Free Energy of Binding    =  -4.63 kcal/mol  [=(1)+(2)+(3)-(4)]
USER
USER    (1) Final Intermolecular Energy     =  -6.12 kcal/mol
USER        vdW + Hbond + desolv Energy     =  -6.05 kcal/mol
USER        Electrostatic Energy            =  -0.07 kcal/mol
USER        Moving Ligand-Fixed Receptor    =  -6.12 kcal/mol
USER        Moving Ligand-Moving Receptor   =  +0.00 kcal/mol
USER    (2) Final Total Internal Energy     =  -2.33 kcal/mol
USER    (3) Torsional Free Energy           =  +1.49 kcal/mol
USER    (4) Unbound System's Energy         =  -2.33 kcal/mol
USER
USER
REMARK  Name = Z16422108
REMARK  8 active torsions:
REMARK  status: ('A' for Active; 'I' for Inactive)
REMARK    1  A    between atoms: C_1  and  C_2
REMARK    2  A    between atoms: C_2  and  C_3
REMARK    3  A    between atoms: C_2  and  C_4
REMARK    4  A    between atoms: C_2  and  C_5
REMARK    5  A    between atoms: C_10  and  N_11
REMARK    6  A    between atoms: C_12  and  C_14
REMARK    7  A    between atoms: C_14  and  N_15
REMARK    8  A    between atoms: C_18  and  C_20
REMARK                            x       y       z     vdW  Elec       q    Type
REMARK                         _______ _______ _______ _____ _____    ______ ____
USER                              x       y       z     vdW  Elec       q    Type
USER                           _______ _______ _______ _____ _____    ______ ____
ROOT
ATOM      1  N   UNL     1     164.904 172.602 172.991 -0.04 +0.06    -0.284 N 
ATOM      2  H   UNL     1     164.611 171.925 173.673 +0.10 -0.04    +0.155 HD
ATOM      3  C   UNL     1     165.449 172.079 171.827 -0.13 -0.02    +0.240 C 
ATOM      4  O   UNL     1     165.983 172.737 170.933 -0.32 -0.08    -0.273 OA
ENDROOT
BRANCH   1   6
ATOM      5  C   UNL     1     164.321 174.361 174.653 -0.13 -0.00    -0.021 A 
ATOM      6  C   UNL     1     164.745 173.964 173.356 -0.10 -0.01    +0.037 A 
ATOM      7  C   UNL     1     165.000 174.963 172.390 -0.13 -0.01    +0.023 A 
ATOM      8  C   UNL     1     164.871 176.325 172.663 -0.06 -0.00    +0.002 A 
ATOM      9  C   UNL     1     164.475 176.729 173.921 -0.08 -0.00    +0.000 A 
ATOM     10  C   UNL     1     164.211 175.767 174.885 -0.11 +0.00    +0.006 A 
BRANCH   5  12
ATOM     11  C   UNL     1     163.593 174.383 177.096 -0.28 +0.01    +0.015 C 
ATOM     12  C   UNL     1     164.050 173.485 175.912 -0.25 -0.00    -0.011 C 
ATOM     13  C   UNL     1     162.962 172.395 175.854 -0.28 +0.00    +0.015 C 
ATOM     14  C   UNL     1     165.359 172.736 176.258 -0.24 -0.00    +0.015 C 
ENDBRANCH   5  12
ENDBRANCH   1   6
BRANCH   3  15
ATOM     15  C   UNL     1     165.518 170.568 171.739 -0.03 -0.06    +0.264 C 
BRANCH  15  16
ATOM     16  N   UNL     1     164.365 169.896 172.282 -0.27 +0.04    -0.154 N 
ATOM     17  N   UNL     1     164.151 169.832 173.608 -0.28 +0.04    -0.130 NA
ATOM     18  C   UNL     1     162.973 169.177 173.636 -0.21 -0.04    +0.205 A 
ATOM     19  N   UNL     1     162.517 168.880 172.370 -0.34 +0.02    -0.108 NA
ATOM     20  N   UNL     1     163.414 169.344 171.515 -0.38 +0.01    -0.045 NA
BRANCH  18  21
ATOM     21  C   UNL     1     162.229 168.874 174.853 -0.32 -0.00    +0.023 A 
ATOM     22  C   UNL     1     161.173 169.699 175.269 -0.42 -0.00    +0.012 A 
ATOM     23  C   UNL     1     160.430 169.390 176.414 -0.47 -0.00    +0.001 A 
ATOM     24  C   UNL     1     160.744 168.256 177.157 -0.49 -0.00    +0.000 A 
ATOM     25  C   UNL     1     161.797 167.432 176.763 -0.43 -0.00    +0.001 A 
ATOM     26  C   UNL     1     162.535 167.738 175.616 -0.37 -0.00    +0.012 A 
ENDBRANCH  18  21
ENDBRANCH  15  16
ENDBRANCH   3  15
TORSDOF 5
TER
ENDMDL
