MODEL        1
USER    Run = 1
USER
USER    Estimated Free Energy of Binding    =  -6.68 kcal/mol  [=(1)+(2)+(3)-(4)]
USER
USER    (1) Final Intermolecular Energy     =  -7.87 kcal/mol
USER        vdW + Hbond + desolv Energy     =  -7.77 kcal/mol
USER        Electrostatic Energy            =  -0.10 kcal/mol
USER        Moving Ligand-Fixed Receptor    =  -7.87 kcal/mol
USER        Moving Ligand-Moving Receptor   =  +0.00 kcal/mol
USER    (2) Final Total Internal Energy     =  -0.71 kcal/mol
USER    (3) Torsional Free Energy           =  +1.19 kcal/mol
USER    (4) Unbound System's Energy         =  -0.71 kcal/mol
USER
USER
REMARK  Name = Z16422376
REMARK  5 active torsions:
REMARK  status: ('A' for Active; 'I' for Inactive)
REMARK    1  A    between atoms: C_1  and  O_2
REMARK    2  A    between atoms: O_2  and  C_3
REMARK    3  A    between atoms: C_7  and  C_8
REMARK    4  A    between atoms: C_8  and  N_9
REMARK    5  A    between atoms: C_12  and  C_14
REMARK                            x       y       z     vdW  Elec       q    Type
REMARK                         _______ _______ _______ _____ _____    ______ ____
USER                              x       y       z     vdW  Elec       q    Type
USER                           _______ _______ _______ _____ _____    ______ ____
ROOT
ATOM      1  C   UNL     1     153.241 166.640 179.899 -0.26 -0.09    +0.124 A 
ATOM      2  C   UNL     1     153.943 165.611 179.281 -0.27 -0.05    +0.092 A 
ATOM      3  C   UNL     1     155.068 165.918 178.510 -0.26 -0.07    +0.143 A 
ATOM      4  C   UNL     1     155.545 167.223 178.353 -0.45 -0.01    +0.023 A 
ATOM      5  C   UNL     1     156.747 167.437 177.535 -0.56 +0.00    -0.007 C 
ATOM      6  C   UNL     1     157.264 166.379 176.887 -0.43 -0.05    +0.098 C 
ATOM      7  C   UNL     1     156.721 165.016 176.980 -0.17 -0.16    +0.338 C 
ATOM      8  O   UNL     1     157.208 164.099 176.329 -0.32 +0.14    -0.245 OA
ATOM      9  C   UNL     1     154.820 168.245 178.972 -0.38 -0.01    +0.015 A 
ATOM     10  O   UNL     1     155.677 164.826 177.864 -0.08 +0.19    -0.422 OA
ATOM     11  C   UNL     1     153.672 167.955 179.726 -0.29 -0.05    +0.046 A 
ENDROOT
BRANCH   1  13
ATOM     12  C   UNL     1     151.951 167.404 181.728 -0.14 -0.22    +0.277 C 
ATOM     13  O   UNL     1     152.111 166.488 180.651 -0.02 +0.30    -0.495 OA
ENDBRANCH   1  13
BRANCH   5  14
ATOM     14  C   UNL     1     157.388 168.803 177.414 -0.30 -0.13    +0.204 C 
BRANCH  14  15
ATOM     15  N   UNL     1     158.839 168.724 177.415 -0.41 +0.06    -0.158 N 
ATOM     16  N   UNL     1     159.505 168.232 176.354 -0.31 +0.02    -0.130 NA
ATOM     17  C   UNL     1     160.733 168.724 176.597 -0.29 -0.02    +0.205 A 
ATOM     18  N   UNL     1     160.807 169.375 177.809 -0.36 +0.03    -0.108 NA
ATOM     19  N   UNL     1     159.590 169.353 178.333 -0.23 +0.02    -0.045 NA
BRANCH  17  20
ATOM     20  C   UNL     1     161.822 168.685 175.635 -0.31 -0.00    +0.023 A 
ATOM     21  C   UNL     1     162.693 167.586 175.587 -0.38 -0.00    +0.012 A 
ATOM     22  C   UNL     1     163.678 167.505 174.603 -0.42 -0.00    +0.001 A 
ATOM     23  C   UNL     1     163.800 168.517 173.657 -0.42 -0.00    +0.000 A 
ATOM     24  C   UNL     1     162.949 169.621 173.700 -0.33 -0.00    +0.001 A 
ATOM     25  C   UNL     1     161.966 169.709 174.688 -0.37 -0.00    +0.012 A 
ENDBRANCH  17  20
ENDBRANCH  14  15
ENDBRANCH   5  14
TORSDOF 4
TER
ENDMDL
