MODEL        1
USER    Run = 1
USER
USER    Estimated Free Energy of Binding    =  -4.84 kcal/mol  [=(1)+(2)+(3)-(4)]
USER
USER    (1) Final Intermolecular Energy     =  -6.33 kcal/mol
USER        vdW + Hbond + desolv Energy     =  -6.32 kcal/mol
USER        Electrostatic Energy            =  -0.01 kcal/mol
USER        Moving Ligand-Fixed Receptor    =  -6.33 kcal/mol
USER        Moving Ligand-Moving Receptor   =  +0.00 kcal/mol
USER    (2) Final Total Internal Energy     =  -1.45 kcal/mol
USER    (3) Torsional Free Energy           =  +1.49 kcal/mol
USER    (4) Unbound System's Energy         =  -1.45 kcal/mol
USER
USER
REMARK  Name = Z16406815
REMARK  5 active torsions:
REMARK  status: ('A' for Active; 'I' for Inactive)
REMARK    1  A    between atoms: C_2  and  C_5
REMARK    2  A    between atoms: N_10  and  C_11
REMARK    3  A    between atoms: C_11  and  C_12
REMARK    4  A    between atoms: N_14  and  C_15
REMARK    5  A    between atoms: C_18  and  C_19
REMARK                            x       y       z     vdW  Elec       q    Type
REMARK                         _______ _______ _______ _____ _____    ______ ____
USER                              x       y       z     vdW  Elec       q    Type
USER                           _______ _______ _______ _____ _____    ______ ____
ROOT
ATOM      1  C   UNL     1     161.472 170.295 176.068 -0.24 -0.01    +0.220 C 
ENDROOT
BRANCH   1   4
ATOM      2  C   UNL     1     163.713 169.639 173.172 -0.37 -0.02    +0.071 C 
ATOM      3  C   UNL     1     162.905 170.259 174.054 -0.24 -0.02    +0.102 C 
ATOM      4  N   UNL     1     162.336 169.583 175.124 -0.12 +0.03    -0.306 N 
ATOM      5  C   UNL     1     162.575 168.232 175.358 -0.19 -0.03    +0.252 C 
ATOM      6  O   UNL     1     162.075 167.597 176.285 -0.33 +0.03    -0.268 OA
ATOM      7  C   UNL     1     163.466 167.547 174.386 -0.43 -0.02    +0.071 C 
ATOM      8  C   UNL     1     163.992 168.228 173.361 -0.44 -0.00    +0.019 C 
BRANCH   2  10
ATOM      9  F   UNL     1     163.705 170.039 170.816 -0.07 +0.06    -0.166 F 
ATOM     10  C   UNL     1     164.308 170.360 171.991 -0.02 -0.11    +0.419 C 
ATOM     11  F   UNL     1     164.209 171.707 172.123 -0.01 +0.03    -0.166 F 
ATOM     12  F   UNL     1     165.627 170.074 171.844 -0.06 +0.05    -0.166 F 
ENDBRANCH   2  10
ENDBRANCH   1   4
BRANCH   1  13
ATOM     13  C   UNL     1     160.053 169.716 176.109 -0.29 -0.02    +0.237 C 
ATOM     14  N   UNL     1     159.842 168.821 177.154 -0.30 +0.07    -0.284 N 
ATOM     15  H   UNL     1     160.687 168.338 177.471 +0.09 -0.03    +0.155 HD
ATOM     16  O   UNL     1     159.234 169.978 175.230 -0.35 +0.02    -0.274 OA
BRANCH  14  17
ATOM     17  C   UNL     1     158.615 168.154 177.336 -0.38 -0.01    +0.034 A 
ATOM     18  C   UNL     1     158.485 166.783 177.095 -0.32 -0.01    +0.024 A 
ATOM     19  C   UNL     1     157.273 166.138 177.352 -0.41 -0.01    +0.021 A 
ATOM     20  C   UNL     1     156.194 166.857 177.874 -0.43 -0.03    +0.052 A 
ATOM     21  C   UNL     1     156.314 168.235 178.080 -0.41 -0.01    +0.021 A 
ATOM     22  C   UNL     1     157.511 168.888 177.778 -0.39 -0.01    +0.024 A 
BRANCH  20  23
ATOM     23  C   UNL     1     154.977 166.182 178.217 -0.35 -0.05    +0.099 C 
ATOM     24  N   UNL     1     153.999 165.631 178.501 -0.24 +0.10    -0.191 NA
ENDBRANCH  20  23
ENDBRANCH  14  17
ENDBRANCH   1  13
TORSDOF 5
TER
ENDMDL
