MODEL        1
USER    Run = 1
USER
USER    Estimated Free Energy of Binding    =  -5.75 kcal/mol  [=(1)+(2)+(3)-(4)]
USER
USER    (1) Final Intermolecular Energy     =  -6.94 kcal/mol
USER        vdW + Hbond + desolv Energy     =  -6.92 kcal/mol
USER        Electrostatic Energy            =  -0.03 kcal/mol
USER        Moving Ligand-Fixed Receptor    =  -6.94 kcal/mol
USER        Moving Ligand-Moving Receptor   =  +0.00 kcal/mol
USER    (2) Final Total Internal Energy     =  -0.54 kcal/mol
USER    (3) Torsional Free Energy           =  +1.19 kcal/mol
USER    (4) Unbound System's Energy         =  -0.54 kcal/mol
USER
USER
REMARK  Name = Z16422747
REMARK  4 active torsions:
REMARK  status: ('A' for Active; 'I' for Inactive)
REMARK    1  A    between atoms: C_2  and  C_3
REMARK    2  A    between atoms: C_3  and  N_4
REMARK    3  A    between atoms: C_7  and  C_9
REMARK    4  A    between atoms: N_15  and  C_16
REMARK                            x       y       z     vdW  Elec       q    Type
REMARK                         _______ _______ _______ _____ _____    ______ ____
USER                              x       y       z     vdW  Elec       q    Type
USER                           _______ _______ _______ _____ _____    ______ ____
ROOT
ATOM      1  O   UNL     1     159.728 167.189 177.387 -0.27 +0.06    -0.273 OA
ATOM      2  C   UNL     1     159.334 168.311 177.061 -0.34 -0.07    +0.240 C 
ATOM      3  N   UNL     1     160.050 169.196 176.273 -0.25 +0.03    -0.284 N 
ATOM      4  H   UNL     1     159.671 170.143 176.193 +0.12 -0.02    +0.155 HD
ENDROOT
BRANCH   3   5
ATOM      5  C   UNL     1     161.304 168.982 175.658 -0.31 -0.00    +0.037 A 
ATOM      6  C   UNL     1     161.790 169.979 174.797 -0.33 -0.00    +0.073 A 
ATOM      7  C   UNL     1     163.023 169.782 174.203 -0.19 -0.03    +0.168 A 
ATOM      8  C   UNL     1     163.758 168.641 174.416 -0.26 -0.04    +0.166 A 
ATOM      9  O   UNL     1     164.939 168.641 173.745 -0.17 +0.15    -0.453 OA
ATOM     10  C   UNL     1     164.880 169.927 173.097 -0.03 -0.16    +0.466 C 
ATOM     11  C   UNL     1     163.298 167.633 175.230 -0.34 -0.01    +0.051 A 
ATOM     12  O   UNL     1     163.657 170.650 173.366 -0.04 +0.10    -0.453 OA
ATOM     13  C   UNL     1     162.059 167.810 175.854 -0.33 -0.00    +0.027 A 
ENDBRANCH   3   5
BRANCH   2  14
ATOM     14  C   UNL     1     157.934 168.728 177.476 -0.30 -0.13    +0.264 C 
BRANCH  14  15
ATOM     15  N   UNL     1     157.006 167.647 177.713 -0.39 +0.08    -0.154 N 
ATOM     16  N   UNL     1     155.990 167.759 178.590 -0.41 +0.08    -0.130 NA
ATOM     17  C   UNL     1     155.348 166.598 178.375 -0.27 -0.11    +0.205 A 
ATOM     18  N   UNL     1     155.933 165.854 177.379 -0.34 +0.05    -0.108 NA
ATOM     19  N   UNL     1     156.982 166.544 176.948 -0.46 +0.02    -0.045 NA
BRANCH  17  20
ATOM     20  C   UNL     1     154.173 166.190 179.125 -0.37 -0.01    +0.023 A 
ATOM     21  C   UNL     1     153.892 166.781 180.369 -0.36 -0.01    +0.012 A 
ATOM     22  C   UNL     1     152.773 166.400 181.107 -0.33 -0.00    +0.001 A 
ATOM     23  C   UNL     1     151.919 165.421 180.610 -0.32 -0.00    +0.000 A 
ATOM     24  C   UNL     1     152.184 164.823 179.377 -0.32 -0.00    +0.001 A 
ATOM     25  C   UNL     1     153.308 165.203 178.637 -0.31 -0.01    +0.012 A 
ENDBRANCH  17  20
ENDBRANCH  14  15
ENDBRANCH   2  14
TORSDOF 4
TER
ENDMDL
