MODEL        1
USER    Run = 1
USER
USER    Estimated Free Energy of Binding    =  -5.26 kcal/mol  [=(1)+(2)+(3)-(4)]
USER
USER    (1) Final Intermolecular Energy     =  -6.46 kcal/mol
USER        vdW + Hbond + desolv Energy     =  -6.46 kcal/mol
USER        Electrostatic Energy            =  +0.01 kcal/mol
USER        Moving Ligand-Fixed Receptor    =  -6.46 kcal/mol
USER        Moving Ligand-Moving Receptor   =  +0.00 kcal/mol
USER    (2) Final Total Internal Energy     =  -1.41 kcal/mol
USER    (3) Torsional Free Energy           =  +1.19 kcal/mol
USER    (4) Unbound System's Energy         =  -1.41 kcal/mol
USER
USER
REMARK  Name = Z16422765
REMARK  4 active torsions:
REMARK  status: ('A' for Active; 'I' for Inactive)
REMARK    1  A    between atoms: C_2  and  C_3
REMARK    2  A    between atoms: C_3  and  N_4
REMARK    3  A    between atoms: C_7  and  C_9
REMARK    4  A    between atoms: N_15  and  C_16
REMARK                            x       y       z     vdW  Elec       q    Type
REMARK                         _______ _______ _______ _____ _____    ______ ____
USER                              x       y       z     vdW  Elec       q    Type
USER                           _______ _______ _______ _____ _____    ______ ____
ROOT
ATOM      1  N   UNL     1     160.418 169.564 176.313 -0.37 +0.01    -0.154 N 
ATOM      2  N   UNL     1     159.088 169.352 176.303 -0.37 +0.03    -0.130 NA
ATOM      3  C   UNL     1     159.022 168.220 177.029 -0.28 -0.07    +0.205 A 
ATOM      4  N   UNL     1     160.262 167.782 177.431 -0.40 +0.02    -0.108 NA
ATOM      5  N   UNL     1     161.149 168.654 176.970 -0.47 +0.01    -0.045 NA
ENDROOT
BRANCH   3   6
ATOM      6  C   UNL     1     157.778 167.524 177.340 -0.40 -0.01    +0.023 A 
ATOM      7  C   UNL     1     157.679 166.136 177.147 -0.40 -0.00    +0.012 A 
ATOM      8  C   UNL     1     156.510 165.450 177.479 -0.38 -0.00    +0.001 A 
ATOM      9  C   UNL     1     155.422 166.143 178.005 -0.37 -0.00    +0.000 A 
ATOM     10  C   UNL     1     155.500 167.524 178.186 -0.47 -0.00    +0.001 A 
ATOM     11  C   UNL     1     156.670 168.214 177.853 -0.48 -0.01    +0.012 A 
ENDBRANCH   3   6
BRANCH   1  12
ATOM     12  C   UNL     1     160.994 170.729 175.692 -0.28 +0.01    +0.264 C 
BRANCH  12  14
ATOM     13  O   UNL     1     162.976 171.220 174.451 -0.16 +0.03    -0.274 OA
ATOM     14  C   UNL     1     162.183 170.365 174.845 -0.21 -0.02    +0.236 C 
ATOM     15  N   UNL     1     162.253 169.034 174.465 -0.15 +0.03    -0.311 N 
ATOM     16  H   UNL     1     161.608 168.367 174.884 +0.11 -0.00    +0.149 HD
BRANCH  15  17
ATOM     17  C   UNL     1     163.304 168.525 173.639 -0.40 -0.01    +0.073 C 
ATOM     18  C   UNL     1     163.765 167.100 173.784 -0.49 -0.01    +0.024 C 
ATOM     19  C   UNL     1     164.656 168.225 174.223 -0.48 -0.01    +0.024 C 
ENDBRANCH  15  17
ENDBRANCH  12  14
ENDBRANCH   1  12
TORSDOF 4
TER
ENDMDL
