MODEL        1
USER    Run = 1
USER
USER    Estimated Free Energy of Binding    =  -5.49 kcal/mol  [=(1)+(2)+(3)-(4)]
USER
USER    (1) Final Intermolecular Energy     =  -6.69 kcal/mol
USER        vdW + Hbond + desolv Energy     =  -6.66 kcal/mol
USER        Electrostatic Energy            =  -0.03 kcal/mol
USER        Moving Ligand-Fixed Receptor    =  -6.69 kcal/mol
USER        Moving Ligand-Moving Receptor   =  +0.00 kcal/mol
USER    (2) Final Total Internal Energy     =  -1.24 kcal/mol
USER    (3) Torsional Free Energy           =  +1.19 kcal/mol
USER    (4) Unbound System's Energy         =  -1.24 kcal/mol
USER
USER
REMARK  Name = Z16422019
REMARK  5 active torsions:
REMARK  status: ('A' for Active; 'I' for Inactive)
REMARK    1  A    between atoms: C_1  and  C_2
REMARK    2  A    between atoms: C_8  and  N_9
REMARK    3  A    between atoms: C_10  and  C_12
REMARK    4  A    between atoms: C_12  and  N_13
REMARK    5  A    between atoms: C_16  and  C_18
REMARK                            x       y       z     vdW  Elec       q    Type
REMARK                         _______ _______ _______ _____ _____    ______ ____
USER                              x       y       z     vdW  Elec       q    Type
USER                           _______ _______ _______ _____ _____    ______ ____
ROOT
ATOM      1  N   UNL     1     163.300 169.284 174.612 -0.11 +0.06    -0.284 N 
ATOM      2  H   UNL     1     162.678 169.784 175.244 +0.11 -0.02    +0.155 HD
ATOM      3  C   UNL     1     163.494 167.931 174.867 -0.28 -0.05    +0.240 C 
ATOM      4  O   UNL     1     164.082 167.154 174.103 -0.37 +0.08    -0.273 OA
ENDROOT
BRANCH   1   7
ATOM      5  C   UNL     1     162.654 168.509 171.812 -0.42 -0.01    +0.045 C 
ATOM      6  C   UNL     1     163.559 169.653 172.186 -0.25 +0.01    -0.029 A 
ATOM      7  C   UNL     1     163.838 170.028 173.523 -0.29 -0.01    +0.039 A 
ATOM      8  C   UNL     1     164.646 171.150 173.744 -0.21 -0.02    +0.062 A 
ATOM      9  C   UNL     1     165.208 171.848 172.682 -0.14 -0.03    +0.125 A 
ATOM     10  F   UNL     1     165.989 172.907 172.931 +0.05 +0.05    -0.205 F 
ATOM     11  C   UNL     1     164.970 171.470 171.373 -0.25 -0.01    +0.039 A 
ATOM     12  C   UNL     1     164.135 170.386 171.125 -0.12 -0.00    +0.008 A 
ENDBRANCH   1   7
BRANCH   3  13
ATOM     13  C   UNL     1     162.834 167.339 176.093 -0.16 -0.04    +0.264 C 
BRANCH  13  14
ATOM     14  N   UNL     1     161.545 167.910 176.374 -0.34 +0.01    -0.154 N 
ATOM     15  N   UNL     1     160.598 167.194 177.004 -0.29 +0.02    -0.130 NA
ATOM     16  C   UNL     1     159.555 168.035 176.899 -0.25 -0.05    +0.205 A 
ATOM     17  N   UNL     1     159.902 169.231 176.311 -0.41 +0.01    -0.108 NA
ATOM     18  N   UNL     1     161.187 169.142 175.992 -0.42 +0.00    -0.045 NA
BRANCH  16  19
ATOM     19  C   UNL     1     158.210 167.670 177.294 -0.37 -0.01    +0.023 A 
ATOM     20  C   UNL     1     157.758 166.357 177.082 -0.41 -0.01    +0.012 A 
ATOM     21  C   UNL     1     156.458 165.985 177.408 -0.42 -0.00    +0.001 A 
ATOM     22  C   UNL     1     155.595 166.924 177.965 -0.45 -0.00    +0.000 A 
ATOM     23  C   UNL     1     156.030 168.232 178.185 -0.41 -0.00    +0.001 A 
ATOM     24  C   UNL     1     157.333 168.609 177.848 -0.44 -0.01    +0.012 A 
ENDBRANCH  16  19
ENDBRANCH  13  14
ENDBRANCH   3  13
TORSDOF 4
TER
ENDMDL
