MODEL        1
USER    Run = 1
USER
USER    Estimated Free Energy of Binding    =  -5.90 kcal/mol  [=(1)+(2)+(3)-(4)]
USER
USER    (1) Final Intermolecular Energy     =  -7.99 kcal/mol
USER        vdW + Hbond + desolv Energy     =  -7.90 kcal/mol
USER        Electrostatic Energy            =  -0.08 kcal/mol
USER        Moving Ligand-Fixed Receptor    =  -7.99 kcal/mol
USER        Moving Ligand-Moving Receptor   =  +0.00 kcal/mol
USER    (2) Final Total Internal Energy     =  -1.64 kcal/mol
USER    (3) Torsional Free Energy           =  +2.09 kcal/mol
USER    (4) Unbound System's Energy         =  -1.64 kcal/mol
USER
USER
REMARK  Name = Z16405566
REMARK  8 active torsions:
REMARK  status: ('A' for Active; 'I' for Inactive)
REMARK    1  A    between atoms: C_1  and  C_2
REMARK    2  A    between atoms: C_7  and  N_8
REMARK    3  A    between atoms: C_9  and  C_11
REMARK    4  A    between atoms: C_11  and  C_12
REMARK    5  A    between atoms: C_14  and  C_15
REMARK    6  A    between atoms: C_15  and  S_16
REMARK    7  A    between atoms: S_16  and  C_17
REMARK    8  A    between atoms: C_20  and  C_22
REMARK                            x       y       z     vdW  Elec       q    Type
REMARK                         _______ _______ _______ _____ _____    ______ ____
USER                              x       y       z     vdW  Elec       q    Type
USER                           _______ _______ _______ _____ _____    ______ ____
ROOT
ATOM      1  C   UNL     1     153.647 166.031 179.012 -0.28 -0.05    +0.087 A 
ATOM      2  S   UNL     1     153.996 167.449 179.927 -0.44 +0.07    -0.080 S 
ATOM      3  C   UNL     1     155.347 167.759 178.926 -0.36 -0.05    +0.071 A 
ATOM      4  C   UNL     1     155.471 166.777 177.958 -0.38 -0.03    +0.059 A 
ATOM      5  N   UNL     1     154.496 165.781 178.030 -0.08 +0.13    -0.248 NA
ENDROOT
BRANCH   1   6
ATOM      6  C   UNL     1     152.414 165.250 179.340 -0.27 -0.07    +0.159 C 
BRANCH   6   9
ATOM      7  N   UNL     1     153.537 163.163 178.594 -0.10 +0.10    -0.285 N 
ATOM      8  H   UNL     1     154.379 163.734 178.665 +0.09 -0.06    +0.155 HD
ATOM      9  C   UNL     1     152.347 163.827 178.814 -0.19 -0.07    +0.224 C 
ATOM     10  O   UNL     1     151.226 163.361 178.584 -0.18 +0.04    -0.275 OA
BRANCH   7  13
ATOM     11  C   UNL     1     156.108 162.395 177.410 -0.25 -0.02    +0.045 C 
ATOM     12  C   UNL     1     154.932 161.462 177.529 -0.32 +0.01    -0.029 A 
ATOM     13  C   UNL     1     153.706 161.841 178.121 -0.26 -0.01    +0.036 A 
ATOM     14  C   UNL     1     152.686 160.885 178.226 -0.25 -0.01    +0.023 A 
ATOM     15  C   UNL     1     152.845 159.595 177.717 -0.20 -0.00    +0.002 A 
ATOM     16  C   UNL     1     154.038 159.232 177.110 -0.22 -0.00    +0.000 A 
ATOM     17  C   UNL     1     155.080 160.153 177.032 -0.27 -0.00    +0.005 A 
ENDBRANCH   7  13
ENDBRANCH   6   9
ENDBRANCH   1   6
BRANCH   4  18
ATOM     18  C   UNL     1     156.502 166.735 176.860 -0.37 -0.08    +0.135 C 
BRANCH  18  19
ATOM     19  S   UNL     1     158.096 166.258 177.573 -0.39 +0.02    -0.059 S 
BRANCH  19  20
ATOM     20  C   UNL     1     159.144 167.600 177.231 -0.08 -0.08    +0.278 A 
ATOM     21  O   UNL     1     160.189 167.444 176.367 -0.06 +0.04    -0.411 OA
ATOM     22  C   UNL     1     160.758 168.687 176.339 -0.22 -0.02    +0.249 A 
ATOM     23  N   UNL     1     160.123 169.536 177.121 -0.38 +0.02    -0.106 NA
ATOM     24  N   UNL     1     159.067 168.826 177.705 -0.43 +0.03    -0.101 NA
BRANCH  22  25
ATOM     25  C   UNL     1     161.920 168.841 175.458 -0.29 -0.00    +0.039 A 
ATOM     26  C   UNL     1     162.131 170.043 174.753 -0.34 -0.00    +0.016 A 
ATOM     27  C   UNL     1     163.248 170.216 173.929 -0.24 -0.01    +0.039 A 
ATOM     28  C   UNL     1     164.164 169.185 173.798 -0.29 -0.03    +0.123 A 
ATOM     29  F   UNL     1     165.239 169.352 173.017 -0.05 +0.08    -0.205 F 
ATOM     30  C   UNL     1     163.980 167.982 174.471 -0.42 -0.01    +0.039 A 
ATOM     31  C   UNL     1     162.859 167.809 175.298 -0.36 -0.00    +0.016 A 
ENDBRANCH  22  25
ENDBRANCH  19  20
ENDBRANCH  18  19
ENDBRANCH   4  18
TORSDOF 7
TER
ENDMDL
