MODEL        1
USER    Run = 1
USER
USER    Estimated Free Energy of Binding    =  -5.86 kcal/mol  [=(1)+(2)+(3)-(4)]
USER
USER    (1) Final Intermolecular Energy     =  -6.75 kcal/mol
USER        vdW + Hbond + desolv Energy     =  -6.59 kcal/mol
USER        Electrostatic Energy            =  -0.16 kcal/mol
USER        Moving Ligand-Fixed Receptor    =  -6.75 kcal/mol
USER        Moving Ligand-Moving Receptor   =  +0.00 kcal/mol
USER    (2) Final Total Internal Energy     =  -0.52 kcal/mol
USER    (3) Torsional Free Energy           =  +0.89 kcal/mol
USER    (4) Unbound System's Energy         =  -0.52 kcal/mol
USER
USER
REMARK  Name = Z16422968
REMARK  5 active torsions:
REMARK  status: ('A' for Active; 'I' for Inactive)
REMARK    1  A    between atoms: C_1  and  C_2
REMARK    2  A    between atoms: C_6  and  C_7
REMARK    3  A    between atoms: C_9  and  C_11
REMARK    4  A    between atoms: C_11  and  N_12
REMARK    5  A    between atoms: C_15  and  C_17
REMARK                            x       y       z     vdW  Elec       q    Type
REMARK                         _______ _______ _______ _____ _____    ______ ____
USER                              x       y       z     vdW  Elec       q    Type
USER                           _______ _______ _______ _____ _____    ______ ____
ROOT
ATOM      1  C   UNL     1     154.463 168.142 179.138 -0.22 -0.24    +0.264 C 
ENDROOT
BRANCH   1   9
ATOM      2  C   UNL     1     151.778 164.140 179.245 -0.32 -0.01    +0.039 C 
ATOM      3  C   UNL     1     151.270 164.879 180.482 -0.31 -0.03    +0.133 C 
ATOM      4  O   UNL     1     150.157 165.738 180.166 -0.12 +0.10    -0.371 OA
ATOM      5  C   UNL     1     150.524 166.903 179.403 -0.14 -0.09    +0.133 C 
ATOM      6  C   UNL     1     149.265 167.742 179.230 -0.16 -0.02    +0.039 C 
ATOM      7  C   UNL     1     151.628 167.712 180.116 -0.17 -0.11    +0.139 C 
ATOM      8  N   UNL     1     152.768 166.846 180.442 -0.13 +0.22    -0.295 N 
ATOM      9  C   UNL     1     154.056 166.930 179.934 -0.26 -0.19    +0.239 C 
ATOM     10  O   UNL     1     154.886 166.042 180.151 -0.28 +0.15    -0.274 OA
ATOM     11  C   UNL     1     152.378 165.661 181.209 -0.24 -0.06    +0.139 C 
ENDBRANCH   1   9
BRANCH   1  12
ATOM     12  N   UNL     1     155.560 167.828 178.260 -0.41 +0.10    -0.154 N 
ATOM     13  N   UNL     1     156.667 168.598 178.216 -0.40 +0.08    -0.130 NA
ATOM     14  C   UNL     1     157.460 167.841 177.436 -0.27 -0.11    +0.205 A 
ATOM     15  N   UNL     1     156.847 166.673 177.044 -0.41 +0.06    -0.108 NA
ATOM     16  N   UNL     1     155.641 166.666 177.593 -0.43 +0.02    -0.045 NA
BRANCH  14  17
ATOM     17  C   UNL     1     158.828 168.191 177.080 -0.44 -0.01    +0.023 A 
ATOM     18  C   UNL     1     159.890 167.346 177.440 -0.24 -0.00    +0.012 A 
ATOM     19  C   UNL     1     161.203 167.657 177.081 -0.45 -0.00    +0.001 A 
ATOM     20  C   UNL     1     161.470 168.816 176.359 -0.38 -0.00    +0.000 A 
ATOM     21  C   UNL     1     160.426 169.669 176.000 -0.46 -0.00    +0.001 A 
ATOM     22  C   UNL     1     159.110 169.359 176.359 -0.34 -0.00    +0.012 A 
ENDBRANCH  14  17
ENDBRANCH   1  12
TORSDOF 3
TER
ENDMDL
