MODEL        1
USER    Run = 1
USER
USER    Estimated Free Energy of Binding    =  -4.84 kcal/mol  [=(1)+(2)+(3)-(4)]
USER
USER    (1) Final Intermolecular Energy     =  -6.34 kcal/mol
USER        vdW + Hbond + desolv Energy     =  -6.32 kcal/mol
USER        Electrostatic Energy            =  -0.01 kcal/mol
USER        Moving Ligand-Fixed Receptor    =  -6.34 kcal/mol
USER        Moving Ligand-Moving Receptor   =  +0.00 kcal/mol
USER    (2) Final Total Internal Energy     =  -2.16 kcal/mol
USER    (3) Torsional Free Energy           =  +1.49 kcal/mol
USER    (4) Unbound System's Energy         =  -2.16 kcal/mol
USER
USER
REMARK  Name = Z16406501
REMARK  6 active torsions:
REMARK  status: ('A' for Active; 'I' for Inactive)
REMARK    1  A    between atoms: C_1  and  C_2
REMARK    2  A    between atoms: C_2  and  C_3
REMARK    3  A    between atoms: C_2  and  N_18
REMARK    4  A    between atoms: N_5  and  C_6
REMARK    5  A    between atoms: C_11  and  C_12
REMARK    6  A    between atoms: C_20  and  C_25
REMARK                            x       y       z     vdW  Elec       q    Type
REMARK                         _______ _______ _______ _____ _____    ______ ____
USER                              x       y       z     vdW  Elec       q    Type
USER                           _______ _______ _______ _____ _____    ______ ____
ROOT
ATOM      1  C   UNL     1     162.319 167.869 175.716 -0.24 -0.03    +0.240 C 
ATOM      2  N   UNL     1     162.198 169.161 175.195 -0.17 +0.03    -0.283 N 
ATOM      3  H   UNL     1     161.354 169.669 175.429 +0.11 -0.01    +0.155 HD
ATOM      4  O   UNL     1     162.938 166.960 175.164 -0.31 +0.05    -0.273 OA
ENDROOT
BRANCH   2   5
ATOM      5  C   UNL     1     162.820 169.507 173.967 -0.32 -0.01    +0.041 A 
ATOM      6  C   UNL     1     163.632 170.660 173.816 -0.22 -0.00    +0.003 A 
ATOM      7  C   UNL     1     164.203 170.853 172.530 -0.22 -0.00    +0.010 A 
ATOM      8  C   UNL     1     164.032 169.950 171.477 -0.20 -0.00    +0.001 A 
ATOM      9  C   UNL     1     163.254 168.824 171.660 -0.33 -0.00    +0.002 A 
ATOM     10  C   UNL     1     162.640 168.612 172.892 -0.30 -0.00    +0.024 A 
BRANCH   6  11
ATOM     11  C   UNL     1     163.832 171.737 174.841 -0.14 +0.00    -0.016 A 
ATOM     12  C   UNL     1     162.740 172.233 175.590 -0.25 +0.00    +0.008 A 
ATOM     13  C   UNL     1     162.910 173.106 176.672 -0.25 +0.00    +0.001 A 
ATOM     14  C   UNL     1     164.178 173.561 177.002 -0.28 +0.00    +0.000 A 
ATOM     15  C   UNL     1     165.270 173.144 176.250 -0.22 -0.00    +0.001 A 
ATOM     16  C   UNL     1     165.099 172.229 175.203 -0.15 -0.00    +0.008 A 
ENDBRANCH   6  11
ENDBRANCH   2   5
BRANCH   1  18
ATOM     17  C   UNL     1     162.111 166.341 177.680 -0.37 -0.01    +0.041 C 
ATOM     18  C   UNL     1     161.667 167.688 177.106 -0.30 -0.02    +0.173 C 
BRANCH  18  19
ATOM     19  N   UNL     1     160.193 167.844 177.107 -0.24 +0.06    -0.303 N 
ATOM     20  C   UNL     1     159.674 169.131 176.941 -0.29 -0.05    +0.252 C 
ATOM     21  O   UNL     1     160.355 170.146 176.765 -0.23 +0.02    -0.268 OA
ATOM     22  C   UNL     1     158.196 169.258 177.010 -0.19 -0.03    +0.071 C 
ATOM     23  C   UNL     1     157.423 168.172 177.137 -0.38 -0.01    +0.019 C 
ATOM     24  C   UNL     1     158.010 166.847 177.210 -0.40 -0.03    +0.071 C 
ATOM     25  C   UNL     1     159.352 166.737 177.214 +0.04 -0.02    +0.102 C 
BRANCH  24  26
ATOM     26  C   UNL     1     157.102 165.647 177.270 -0.13 -0.19    +0.419 C 
ATOM     27  F   UNL     1     156.058 165.847 178.114 -0.11 +0.08    -0.166 F 
ATOM     28  F   UNL     1     157.754 164.539 177.706 -0.09 +0.06    -0.166 F 
ATOM     29  F   UNL     1     156.565 165.329 176.061 -0.15 +0.10    -0.166 F 
ENDBRANCH  24  26
ENDBRANCH  18  19
ENDBRANCH   1  18
TORSDOF 5
TER
ENDMDL
