MODEL        1
USER    Run = 1
USER
USER    Estimated Free Energy of Binding    =  -7.30 kcal/mol  [=(1)+(2)+(3)-(4)]
USER
USER    (1) Final Intermolecular Energy     =  -9.09 kcal/mol
USER        vdW + Hbond + desolv Energy     =  -8.94 kcal/mol
USER        Electrostatic Energy            =  -0.15 kcal/mol
USER        Moving Ligand-Fixed Receptor    =  -9.09 kcal/mol
USER        Moving Ligand-Moving Receptor   =  +0.00 kcal/mol
USER    (2) Final Total Internal Energy     =  -1.56 kcal/mol
USER    (3) Torsional Free Energy           =  +1.79 kcal/mol
USER    (4) Unbound System's Energy         =  -1.56 kcal/mol
USER
USER
REMARK  Name = Z16422847
REMARK  6 active torsions:
REMARK  status: ('A' for Active; 'I' for Inactive)
REMARK    1  A    between atoms: C_2  and  C_3
REMARK    2  A    between atoms: C_3  and  N_4
REMARK    3  A    between atoms: C_7  and  C_9
REMARK    4  A    between atoms: N_15  and  C_16
REMARK    5  A    between atoms: C_20  and  S_22
REMARK    6  A    between atoms: S_22  and  N_25
REMARK                            x       y       z     vdW  Elec       q    Type
REMARK                         _______ _______ _______ _____ _____    ______ ____
USER                              x       y       z     vdW  Elec       q    Type
USER                           _______ _______ _______ _____ _____    ______ ____
ROOT
ATOM      1  O   UNL     1     158.103 164.838 177.850 -0.26 +0.09    -0.273 OA
ATOM      2  C   UNL     1     157.347 165.751 177.518 -0.28 -0.10    +0.240 C 
ATOM      3  N   UNL     1     157.748 167.006 177.070 -0.23 +0.14    -0.284 N 
ATOM      4  H   UNL     1     157.028 167.631 176.714 -0.25 -0.13    +0.155 HD
ENDROOT
BRANCH   3   5
ATOM      5  C   UNL     1     159.079 167.481 177.016 -0.35 -0.01    +0.035 A 
ATOM      6  C   UNL     1     159.312 168.748 176.468 -0.36 -0.01    +0.052 A 
ATOM      7  C   UNL     1     160.630 169.212 176.324 -0.37 -0.01    +0.107 A 
ATOM      8  C   UNL     1     161.709 168.471 176.806 -0.04 -0.00    +0.029 A 
ATOM      9  C   UNL     1     161.474 167.233 177.390 -0.45 -0.00    +0.004 A 
ATOM     10  C   UNL     1     160.170 166.740 177.484 -0.02 -0.00    +0.023 A 
BRANCH   7  11
ATOM     11  S   UNL     1     160.945 170.786 175.553 -0.60 +0.00    +0.061 S 
ATOM     12  O   UNL     1     161.540 171.651 176.550 -0.39 -0.02    -0.153 OA
ATOM     13  O   UNL     1     159.737 171.166 174.849 -0.46 -0.01    -0.153 OA
BRANCH  11  14
ATOM     14  N   UNL     1     162.120 170.428 174.399 -0.23 +0.01    -0.177 NA
ATOM     15  C   UNL     1     162.231 169.055 173.873 -0.25 -0.01    +0.109 C 
ATOM     16  C   UNL     1     163.674 168.922 173.390 -0.45 -0.00    +0.018 C 
ATOM     17  C   UNL     1     164.231 170.335 173.390 -0.35 -0.01    +0.018 C 
ATOM     18  C   UNL     1     163.459 171.025 174.503 -0.16 -0.02    +0.109 C 
ENDBRANCH  11  14
ENDBRANCH   7  11
ENDBRANCH   3   5
BRANCH   2  19
ATOM     19  C   UNL     1     155.863 165.499 177.466 -0.18 -0.12    +0.264 C 
BRANCH  19  20
ATOM     20  N   UNL     1     155.157 166.478 178.246 -0.34 +0.08    -0.154 N 
ATOM     21  N   UNL     1     154.082 166.134 178.974 -0.31 +0.08    -0.130 NA
ATOM     22  C   UNL     1     153.818 167.311 179.574 -0.21 -0.18    +0.205 A 
ATOM     23  N   UNL     1     154.700 168.300 179.201 -0.39 +0.10    -0.108 NA
ATOM     24  N   UNL     1     155.560 167.750 178.355 -0.50 +0.03    -0.045 NA
BRANCH  22  25
ATOM     25  C   UNL     1     152.755 167.504 180.547 -0.28 -0.02    +0.023 A 
ATOM     26  C   UNL     1     152.391 168.802 180.941 -0.27 -0.01    +0.012 A 
ATOM     27  C   UNL     1     151.339 169.007 181.833 -0.18 -0.00    +0.001 A 
ATOM     28  C   UNL     1     150.643 167.916 182.347 -0.23 -0.00    +0.000 A 
ATOM     29  C   UNL     1     151.004 166.621 181.979 -0.27 -0.00    +0.001 A 
ATOM     30  C   UNL     1     152.057 166.413 181.084 -0.29 -0.01    +0.012 A 
ENDBRANCH  22  25
ENDBRANCH  19  20
ENDBRANCH   2  19
TORSDOF 6
TER
ENDMDL
