MODEL        1
USER    Run = 1
USER
USER    Estimated Free Energy of Binding    =  -5.95 kcal/mol  [=(1)+(2)+(3)-(4)]
USER
USER    (1) Final Intermolecular Energy     =  -7.14 kcal/mol
USER        vdW + Hbond + desolv Energy     =  -7.05 kcal/mol
USER        Electrostatic Energy            =  -0.09 kcal/mol
USER        Moving Ligand-Fixed Receptor    =  -7.14 kcal/mol
USER        Moving Ligand-Moving Receptor   =  +0.00 kcal/mol
USER    (2) Final Total Internal Energy     =  -1.04 kcal/mol
USER    (3) Torsional Free Energy           =  +1.19 kcal/mol
USER    (4) Unbound System's Energy         =  -1.04 kcal/mol
USER
USER
REMARK  Name = Z16422962
REMARK  5 active torsions:
REMARK  status: ('A' for Active; 'I' for Inactive)
REMARK    1  A    between atoms: C_1  and  N_2
REMARK    2  A    between atoms: N_2  and  C_3
REMARK    3  A    between atoms: C_9  and  C_11
REMARK    4  A    between atoms: C_11  and  N_12
REMARK    5  A    between atoms: C_15  and  C_17
REMARK                            x       y       z     vdW  Elec       q    Type
REMARK                         _______ _______ _______ _____ _____    ______ ____
USER                              x       y       z     vdW  Elec       q    Type
USER                           _______ _______ _______ _____ _____    ______ ____
ROOT
ATOM      1  C   UNL     1     160.777 171.526 175.227 -0.01 +0.04    +0.264 C 
ENDROOT
BRANCH   1   2
ATOM      2  N   UNL     1     160.454 170.350 176.017 -0.34 +0.00    -0.154 N 
ATOM      3  N   UNL     1     159.257 169.737 175.884 -0.36 +0.02    -0.130 NA
ATOM      4  C   UNL     1     159.269 168.927 176.961 -0.28 -0.06    +0.205 A 
ATOM      5  N   UNL     1     160.385 169.117 177.742 -0.45 +0.03    -0.108 NA
ATOM      6  N   UNL     1     161.119 170.057 177.151 -0.42 +0.00    -0.045 NA
BRANCH   4   7
ATOM      7  C   UNL     1     158.196 167.996 177.290 -0.40 -0.01    +0.023 A 
ATOM      8  C   UNL     1     156.971 168.469 177.790 -0.44 -0.01    +0.012 A 
ATOM      9  C   UNL     1     155.941 167.585 178.121 -0.49 -0.00    +0.001 A 
ATOM     10  C   UNL     1     156.124 166.213 177.956 -0.42 -0.00    +0.000 A 
ATOM     11  C   UNL     1     157.331 165.728 177.457 -0.41 -0.00    +0.001 A 
ATOM     12  C   UNL     1     158.362 166.614 177.124 -0.31 -0.00    +0.012 A 
ENDBRANCH   4   7
ENDBRANCH   1   2
BRANCH   1  15
ATOM     13  C   UNL     1     164.549 171.975 175.255 +0.02 -0.03    +0.132 C 
ATOM     14  N   UNL     1     163.275 171.349 174.896 -0.04 +0.04    -0.300 N 
ATOM     15  C   UNL     1     162.178 172.021 175.491 -0.16 +0.03    +0.239 C 
ATOM     16  O   UNL     1     162.371 172.995 176.227 -0.32 -0.12    -0.274 OA
BRANCH  14  17
ATOM     17  C   UNL     1     163.189 170.434 173.708 -0.17 -0.01    +0.076 C 
ATOM     18  C   UNL     1     162.207 169.259 173.881 -0.36 -0.00    +0.022 C 
ATOM     19  C   UNL     1     162.685 168.264 174.930 -0.42 -0.00    +0.002 C 
ATOM     20  C   UNL     1     164.014 167.641 174.529 -0.49 -0.00    +0.000 C 
ATOM     21  C   UNL     1     165.061 168.669 174.110 -0.39 -0.00    +0.002 C 
ATOM     22  C   UNL     1     164.522 169.802 173.222 -0.39 -0.01    +0.022 C 
ENDBRANCH  14  17
ENDBRANCH   1  15
TORSDOF 4
TER
ENDMDL
