MODEL        1
USER    Run = 1
USER
USER    Estimated Free Energy of Binding    =  -5.13 kcal/mol  [=(1)+(2)+(3)-(4)]
USER
USER    (1) Final Intermolecular Energy     =  -6.32 kcal/mol
USER        vdW + Hbond + desolv Energy     =  -6.42 kcal/mol
USER        Electrostatic Energy            =  +0.10 kcal/mol
USER        Moving Ligand-Fixed Receptor    =  -6.32 kcal/mol
USER        Moving Ligand-Moving Receptor   =  +0.00 kcal/mol
USER    (2) Final Total Internal Energy     =  -0.68 kcal/mol
USER    (3) Torsional Free Energy           =  +1.19 kcal/mol
USER    (4) Unbound System's Energy         =  -0.68 kcal/mol
USER
USER
REMARK  Name = Z16406487
REMARK  4 active torsions:
REMARK  status: ('A' for Active; 'I' for Inactive)
REMARK    1  A    between atoms: C_2  and  C_5
REMARK    2  A    between atoms: N_10  and  C_11
REMARK    3  A    between atoms: C_11  and  C_12
REMARK    4  A    between atoms: N_17  and  C_18
REMARK                            x       y       z     vdW  Elec       q    Type
REMARK                         _______ _______ _______ _____ _____    ______ ____
USER                              x       y       z     vdW  Elec       q    Type
USER                           _______ _______ _______ _____ _____    ______ ____
ROOT
ATOM      1  C   UNL     1     154.876 167.992 179.095 -0.26 -0.20    +0.240 C 
ATOM      2  N   UNL     1     155.976 168.654 178.605 -0.21 +0.17    -0.239 N 
ATOM      3  H   UNL     1     156.024 169.628 178.854 -0.18 -0.16    +0.159 HD
ATOM      4  C   UNL     1     156.857 168.173 177.674 -0.27 -0.19    +0.306 C 
ATOM      5  N   UNL     1     157.949 168.994 177.485 -0.27 +0.15    -0.296 N 
ATOM      6  H   UNL     1     157.764 169.983 177.402 +0.15 -0.07    +0.150 HD
ATOM      7  O   UNL     1     156.752 167.092 177.115 -0.38 +0.15    -0.252 OA
ATOM      8  O   UNL     1     153.998 168.649 179.661 -0.30 +0.31    -0.273 OA
ENDROOT
BRANCH   5   9
ATOM      9  C   UNL     1     159.046 168.446 176.710 -0.45 -0.02    +0.074 C 
ATOM     10  C   UNL     1     159.789 167.340 177.472 -0.27 -0.01    +0.022 C 
ATOM     11  C   UNL     1     161.263 167.484 177.118 -0.53 -0.00    +0.002 C 
ATOM     12  C   UNL     1     161.327 168.575 176.059 -0.44 -0.00    +0.002 C 
ATOM     13  C   UNL     1     160.132 169.463 176.372 -0.51 -0.00    +0.022 C 
ENDBRANCH   5   9
BRANCH   1  14
ATOM     14  C   UNL     1     154.716 166.485 178.837 -0.31 -0.13    +0.221 C 
BRANCH  14  17
ATOM     15  C   UNL     1     151.396 164.796 178.873 -0.30 -0.02    +0.071 C 
ATOM     16  C   UNL     1     152.581 165.271 178.453 -0.26 -0.05    +0.102 C 
ATOM     17  N   UNL     1     153.508 165.817 179.328 -0.16 +0.17    -0.306 N 
ATOM     18  C   UNL     1     153.263 165.907 180.700 -0.17 -0.14    +0.252 C 
ATOM     19  O   UNL     1     154.008 166.444 181.515 -0.33 +0.20    -0.268 OA
ATOM     20  C   UNL     1     151.967 165.346 181.167 -0.32 -0.03    +0.071 C 
ATOM     21  C   UNL     1     151.092 164.834 180.290 -0.38 -0.00    +0.019 C 
BRANCH  15  23
ATOM     22  F   UNL     1     149.095 164.443 178.346 -0.06 -0.02    -0.166 F 
ATOM     23  C   UNL     1     150.368 164.299 177.897 -0.08 -0.09    +0.419 C 
ATOM     24  F   UNL     1     150.440 164.969 176.716 -0.08 +0.06    -0.166 F 
ATOM     25  F   UNL     1     150.538 162.984 177.610 -0.06 +0.03    -0.166 F 
ENDBRANCH  15  23
ENDBRANCH  14  17
ENDBRANCH   1  14
TORSDOF 4
TER
ENDMDL
