MODEL        1
USER    Run = 1
USER
USER    Estimated Free Energy of Binding    =  -5.36 kcal/mol  [=(1)+(2)+(3)-(4)]
USER
USER    (1) Final Intermolecular Energy     =  -6.26 kcal/mol
USER        vdW + Hbond + desolv Energy     =  -6.19 kcal/mol
USER        Electrostatic Energy            =  -0.07 kcal/mol
USER        Moving Ligand-Fixed Receptor    =  -6.26 kcal/mol
USER        Moving Ligand-Moving Receptor   =  +0.00 kcal/mol
USER    (2) Final Total Internal Energy     =  -0.67 kcal/mol
USER    (3) Torsional Free Energy           =  +0.89 kcal/mol
USER    (4) Unbound System's Energy         =  -0.67 kcal/mol
USER
USER
REMARK  Name = Z16406724
REMARK  3 active torsions:
REMARK  status: ('A' for Active; 'I' for Inactive)
REMARK    1  A    between atoms: C_2  and  C_5
REMARK    2  A    between atoms: N_10  and  C_11
REMARK    3  A    between atoms: C_11  and  C_12
REMARK                            x       y       z     vdW  Elec       q    Type
REMARK                         _______ _______ _______ _____ _____    ______ ____
USER                              x       y       z     vdW  Elec       q    Type
USER                           _______ _______ _______ _____ _____    ______ ____
ROOT
ATOM      1  C   UNL     1     157.218 166.301 176.887 -0.32 -0.11    +0.220 C 
ENDROOT
BRANCH   1   2
ATOM      2  C   UNL     1     158.586 166.018 177.526 +0.04 -0.07    +0.236 C 
ATOM      3  N   UNL     1     159.580 166.973 177.392 -0.09 +0.07    -0.295 N 
ATOM      4  C   UNL     1     159.324 168.380 177.117 -0.43 -0.04    +0.143 C 
ATOM      5  C   UNL     1     160.381 169.008 176.244 -0.41 +0.00    -0.027 A 
ATOM      6  C   UNL     1     161.618 168.377 176.018 -0.33 +0.00    -0.041 A 
ATOM      7  C   UNL     1     162.550 168.983 175.163 -0.21 -0.00    +0.004 A 
ATOM      8  C   UNL     1     162.270 170.214 174.569 -0.32 -0.00    +0.000 A 
ATOM      9  C   UNL     1     161.060 170.855 174.824 -0.29 +0.00    +0.000 A 
ATOM     10  C   UNL     1     161.912 167.022 176.618 -0.36 -0.01    +0.054 C 
ATOM     11  C   UNL     1     160.120 170.256 175.659 -0.41 -0.00    +0.005 A 
ATOM     12  C   UNL     1     160.956 166.661 177.763 -0.13 -0.02    +0.113 C 
ATOM     13  O   UNL     1     158.780 164.948 178.109 -0.22 +0.08    -0.274 OA
ENDBRANCH   1   2
BRANCH   1  16
ATOM     14  C   UNL     1     154.003 165.595 178.608 -0.34 -0.04    +0.071 C 
ATOM     15  C   UNL     1     155.147 165.436 177.915 -0.23 -0.05    +0.102 C 
ATOM     16  N   UNL     1     156.072 166.463 177.787 -0.23 +0.15    -0.306 N 
ATOM     17  C   UNL     1     155.852 167.728 178.332 -0.33 -0.15    +0.252 C 
ATOM     18  O   UNL     1     156.612 168.685 178.217 -0.40 +0.17    -0.268 OA
ATOM     19  C   UNL     1     154.593 167.896 179.104 -0.41 -0.06    +0.071 C 
ATOM     20  C   UNL     1     153.732 166.877 179.225 -0.38 -0.01    +0.019 C 
BRANCH  14  22
ATOM     21  F   UNL     1     152.305 164.502 179.880 -0.08 +0.05    -0.166 F 
ATOM     22  C   UNL     1     152.984 164.492 178.702 -0.11 -0.16    +0.419 C 
ATOM     23  F   UNL     1     152.053 164.583 177.718 -0.10 +0.06    -0.166 F 
ATOM     24  F   UNL     1     153.558 163.269 178.592 -0.09 +0.06    -0.166 F 
ENDBRANCH  14  22
ENDBRANCH   1  16
TORSDOF 3
TER
ENDMDL
