MODEL        1
USER    Run = 1
USER
USER    Estimated Free Energy of Binding    =  -5.03 kcal/mol  [=(1)+(2)+(3)-(4)]
USER
USER    (1) Final Intermolecular Energy     =  -6.52 kcal/mol
USER        vdW + Hbond + desolv Energy     =  -6.53 kcal/mol
USER        Electrostatic Energy            =  +0.01 kcal/mol
USER        Moving Ligand-Fixed Receptor    =  -6.52 kcal/mol
USER        Moving Ligand-Moving Receptor   =  +0.00 kcal/mol
USER    (2) Final Total Internal Energy     =  -0.40 kcal/mol
USER    (3) Torsional Free Energy           =  +1.49 kcal/mol
USER    (4) Unbound System's Energy         =  -0.40 kcal/mol
USER
USER
REMARK  Name = Z16522689
REMARK  7 active torsions:
REMARK  status: ('A' for Active; 'I' for Inactive)
REMARK    1  A    between atoms: C_1  and  C_2
REMARK    2  A    between atoms: C_2  and  C_3
REMARK    3  A    between atoms: C_2  and  N_4
REMARK    4  A    between atoms: C_8  and  C_10
REMARK    5  A    between atoms: C_10  and  S_11
REMARK    6  A    between atoms: S_11  and  C_12
REMARK    7  A    between atoms: C_15  and  C_19
REMARK                            x       y       z     vdW  Elec       q    Type
REMARK                         _______ _______ _______ _____ _____    ______ ____
USER                              x       y       z     vdW  Elec       q    Type
USER                           _______ _______ _______ _____ _____    ______ ____
ROOT
ATOM      1  C   UNL     1     158.397 167.827 177.054 -0.34 -0.07    +0.172 C 
ENDROOT
BRANCH   1   7
ATOM      2  N   UNL     1     154.579 167.594 179.106 -0.24 +0.24    -0.297 N 
ATOM      3  H   UNL     1     155.141 168.442 179.169 +0.01 -0.13    +0.150 HD
ATOM      4  C   UNL     1     155.208 166.492 178.612 -0.26 -0.17    +0.306 C 
ATOM      5  N   UNL     1     156.448 166.710 178.061 -0.28 +0.12    -0.239 N 
ATOM      6  H   UNL     1     156.829 165.882 177.623 +0.12 -0.07    +0.159 HD
ATOM      7  C   UNL     1     157.089 167.914 177.823 -0.33 -0.13    +0.231 C 
ATOM      8  O   UNL     1     156.710 168.984 178.304 -0.32 +0.18    -0.274 OA
ATOM      9  O   UNL     1     154.727 165.364 178.610 -0.27 +0.12    -0.252 OA
BRANCH   2  11
ATOM     10  C   UNL     1     153.405 166.714 181.064 -0.40 -0.02    +0.027 C 
ATOM     11  C   UNL     1     153.300 167.551 179.792 -0.33 -0.06    +0.068 C 
ATOM     12  C   UNL     1     152.839 168.969 180.113 -0.36 -0.03    +0.027 C 
ENDBRANCH   2  11
ENDBRANCH   1   7
BRANCH   1  13
ATOM     13  S   UNL     1     159.658 168.983 177.683 -0.57 +0.03    -0.095 S 
BRANCH  13  14
ATOM     14  C   UNL     1     160.957 168.752 176.470 -0.35 -0.01    +0.116 A 
ATOM     15  C   UNL     1     161.875 167.701 176.560 -0.34 -0.01    +0.073 A 
ATOM     16 CL   UNL     1     161.882 166.541 177.838 -0.57 +0.01    -0.081 Cl
ATOM     17  C   UNL     1     162.843 167.570 175.560 -0.35 -0.01    +0.036 A 
ATOM     18  C   UNL     1     162.883 168.480 174.500 -0.31 -0.01    +0.074 A 
ATOM     19  C   UNL     1     161.946 169.499 174.500 -0.25 -0.01    +0.124 A 
ATOM     20  N   UNL     1     160.996 169.652 175.455 -0.27 +0.01    -0.247 NA
BRANCH  18  21
ATOM     21  C   UNL     1     163.892 168.357 173.399 -0.13 -0.10    +0.419 C 
ATOM     22  F   UNL     1     163.354 167.836 172.263 -0.11 +0.04    -0.166 F 
ATOM     23  F   UNL     1     164.927 167.539 173.734 -0.16 +0.05    -0.166 F 
ATOM     24  F   UNL     1     164.452 169.543 173.039 -0.10 +0.05    -0.166 F 
ENDBRANCH  18  21
ENDBRANCH  13  14
ENDBRANCH   1  13
TORSDOF 5
TER
ENDMDL
