MODEL        1
USER    Run = 1
USER
USER    Estimated Free Energy of Binding    =  -4.28 kcal/mol  [=(1)+(2)+(3)-(4)]
USER
USER    (1) Final Intermolecular Energy     =  -5.77 kcal/mol
USER        vdW + Hbond + desolv Energy     =  -5.61 kcal/mol
USER        Electrostatic Energy            =  -0.16 kcal/mol
USER        Moving Ligand-Fixed Receptor    =  -5.77 kcal/mol
USER        Moving Ligand-Moving Receptor   =  +0.00 kcal/mol
USER    (2) Final Total Internal Energy     =  -2.72 kcal/mol
USER    (3) Torsional Free Energy           =  +1.49 kcal/mol
USER    (4) Unbound System's Energy         =  -2.72 kcal/mol
USER
USER
REMARK  Name = Z16516712
REMARK  6 active torsions:
REMARK  status: ('A' for Active; 'I' for Inactive)
REMARK    1  A    between atoms: C_1  and  O_2
REMARK    2  A    between atoms: O_2  and  C_3
REMARK    3  A    between atoms: C_8  and  N_9
REMARK    4  A    between atoms: C_10  and  C_12
REMARK    5  A    between atoms: C_12  and  O_13
REMARK    6  A    between atoms: O_13  and  C_14
REMARK                            x       y       z     vdW  Elec       q    Type
REMARK                         _______ _______ _______ _____ _____    ______ ____
USER                              x       y       z     vdW  Elec       q    Type
USER                           _______ _______ _______ _____ _____    ______ ____
ROOT
ATOM      1  O   UNL     1     165.864 172.246 173.022 +0.01 +0.14    -0.466 OA
ENDROOT
BRANCH   1   2
ATOM      2  C   UNL     1     165.005 172.859 173.909 +0.01 -0.05    +0.227 A 
ATOM      3  C   UNL     1     163.938 172.143 174.473 -0.12 -0.01    +0.073 A 
ATOM      4  C   UNL     1     163.160 172.875 175.358 -0.15 +0.02    +0.116 A 
ATOM      5  S   UNL     1     161.843 171.990 175.962 -0.49 -0.01    -0.073 S 
ATOM      6  C   UNL     1     162.293 170.594 175.091 -0.26 +0.00    -0.004 A 
ATOM      7  C   UNL     1     161.466 169.348 175.194 -0.40 -0.00    +0.043 C 
ATOM      8  C   UNL     1     162.265 168.175 175.761 -0.39 -0.00    +0.005 C 
ATOM      9  C   UNL     1     163.264 167.564 174.772 -0.47 -0.00    +0.001 C 
ATOM     10  C   UNL     1     164.456 168.455 174.413 -0.48 -0.00    +0.005 C 
ATOM     11  C   UNL     1     164.099 169.677 173.559 -0.39 -0.01    +0.037 C 
ATOM     12  N   UNL     1     163.357 174.148 175.742 -0.50 -0.13    -0.228 NA
ATOM     13  C   UNL     1     164.424 174.699 175.162 -0.02 +0.03    +0.226 A 
ATOM     14  C   UNL     1     163.455 170.779 174.356 -0.19 +0.00    -0.023 A 
ATOM     15  N   UNL     1     165.244 174.137 174.265 -0.04 +0.03    -0.201 NA
ENDBRANCH   1   2
BRANCH   1  16
ATOM     16  C   UNL     1     165.317 172.137 171.712 -0.07 -0.03    +0.326 C 
BRANCH  16  19
ATOM     17  N   UNL     1     165.990 174.478 171.524 -0.06 +0.02    -0.280 N 
ATOM     18  H   UNL     1     165.643 174.530 172.477 +0.08 -0.03    +0.155 HD
ATOM     19  C   UNL     1     165.828 173.281 170.843 -0.09 +0.05    +0.255 C 
ATOM     20  O   UNL     1     165.991 173.110 169.635 -0.78 -0.13    -0.272 OA
BRANCH  17  22
ATOM     21  C   UNL     1     166.463 176.855 171.785 -0.03 -0.02    +0.141 A 
ATOM     22  C   UNL     1     166.504 175.685 170.994 -0.13 -0.00    +0.076 A 
ATOM     23  C   UNL     1     167.063 175.750 169.714 -0.20 +0.00    +0.027 A 
ATOM     24  C   UNL     1     167.554 176.952 169.206 -0.24 -0.00    +0.002 A 
ATOM     25  C   UNL     1     167.518 178.099 169.985 -0.18 -0.00    +0.004 A 
ATOM     26  C   UNL     1     166.991 178.050 171.274 -0.09 -0.01    +0.047 A 
BRANCH  21  28
ATOM     27  C   UNL     1     164.864 177.705 173.308 +0.03 -0.10    +0.277 C 
ATOM     28  O   UNL     1     165.892 176.754 173.036 +0.04 +0.11    -0.493 OA
ENDBRANCH  21  28
ENDBRANCH  17  22
ENDBRANCH  16  19
ENDBRANCH   1  16
TORSDOF 5
TER
ENDMDL
