MODEL        1
USER    Run = 1
USER
USER    Estimated Free Energy of Binding    =  -4.91 kcal/mol  [=(1)+(2)+(3)-(4)]
USER
USER    (1) Final Intermolecular Energy     =  -6.70 kcal/mol
USER        vdW + Hbond + desolv Energy     =  -6.56 kcal/mol
USER        Electrostatic Energy            =  -0.14 kcal/mol
USER        Moving Ligand-Fixed Receptor    =  -6.70 kcal/mol
USER        Moving Ligand-Moving Receptor   =  +0.00 kcal/mol
USER    (2) Final Total Internal Energy     =  -1.37 kcal/mol
USER    (3) Torsional Free Energy           =  +1.79 kcal/mol
USER    (4) Unbound System's Energy         =  -1.37 kcal/mol
USER
USER
REMARK  Name = Z16504719
REMARK  9 active torsions:
REMARK  status: ('A' for Active; 'I' for Inactive)
REMARK    1  A    between atoms: C_1  and  C_2
REMARK    2  A    between atoms: N_4  and  C_5
REMARK    3  A    between atoms: C_7  and  C_8
REMARK    4  A    between atoms: C_9  and  C_10
REMARK    5  A    between atoms: C_11  and  C_12
REMARK    6  A    between atoms: C_12  and  O_14
REMARK    7  A    between atoms: O_14  and  C_15
REMARK    8  A    between atoms: C_15  and  C_16
REMARK    9  A    between atoms: N_18  and  C_19
REMARK                            x       y       z     vdW  Elec       q    Type
REMARK                         _______ _______ _______ _____ _____    ______ ____
USER                              x       y       z     vdW  Elec       q    Type
USER                           _______ _______ _______ _____ _____    ______ ____
ROOT
ATOM      1  C   UNL     1     163.571 172.626 175.288 -0.04 +0.00    +0.342 C 
ATOM      2  O   UNL     1     164.022 173.137 176.310 -0.20 -0.02    -0.245 OA
ENDROOT
BRANCH   1   4
ATOM      3  C   UNL     1     165.042 171.339 173.649 -0.18 -0.03    +0.086 A 
ATOM      4  C   UNL     1     164.372 172.475 174.070 -0.10 -0.02    +0.091 A 
ATOM      5  C   UNL     1     164.575 173.554 173.101 -0.09 +0.00    -0.025 A 
ATOM      6  C   UNL     1     163.963 174.921 173.228 -0.18 -0.01    +0.045 C 
ATOM      7  C   UNL     1     165.392 173.164 172.051 -0.16 +0.00    -0.008 A 
ATOM      8  C   UNL     1     165.766 173.947 170.835 -0.26 +0.00    +0.052 C 
ATOM      9  S   UNL     1     166.027 171.599 172.290 -0.36 +0.02    -0.078 S 
BRANCH   3  12
ATOM     10  C   UNL     1     164.250 167.838 174.556 -0.41 -0.03    +0.109 C 
ATOM     11  C   UNL     1     164.023 169.188 173.929 -0.28 -0.06    +0.214 C 
ATOM     12  N   UNL     1     165.106 170.034 174.093 -0.17 +0.12    -0.280 N 
ATOM     13  H   UNL     1     166.023 169.605 174.087 -0.10 -0.12    +0.155 HD
ATOM     14  O   UNL     1     162.986 169.459 173.334 -0.25 +0.05    -0.276 OA
ENDBRANCH   3  12
ENDBRANCH   1   4
BRANCH   1  15
ATOM     15  O   UNL     1     162.303 172.128 175.226 -0.11 -0.05    -0.452 OA
BRANCH  15  16
ATOM     16  C   UNL     1     161.876 171.410 176.382 -0.02 +0.03    +0.328 C 
BRANCH  16  17
ATOM     17  C   UNL     1     160.748 170.375 176.198 -0.22 -0.00    +0.255 C 
ATOM     18  N   UNL     1     160.514 169.592 177.317 -0.25 +0.05    -0.281 N 
ATOM     19  H   UNL     1     160.790 169.996 178.213 -0.37 -0.04    +0.155 HD
ATOM     20  O   UNL     1     160.154 170.270 175.126 -0.41 -0.00    -0.272 OA
BRANCH  18  21
ATOM     21  C   UNL     1     159.512 168.601 177.381 -0.44 -0.01    +0.052 A 
ATOM     22  C   UNL     1     159.869 167.243 177.410 -0.17 -0.01    +0.062 A 
ATOM     23 CL   UNL     1     161.525 166.747 177.445 -0.54 +0.01    -0.082 Cl
ATOM     24  C   UNL     1     158.885 166.255 177.483 +0.01 -0.01    +0.022 A 
ATOM     25  C   UNL     1     157.537 166.615 177.481 -0.41 -0.00    +0.002 A 
ATOM     26  C   UNL     1     157.175 167.959 177.415 -0.45 -0.00    +0.002 A 
ATOM     27  C   UNL     1     158.158 168.951 177.378 -0.40 -0.01    +0.025 A 
ENDBRANCH  18  21
ENDBRANCH  16  17
ENDBRANCH  15  16
ENDBRANCH   1  15
TORSDOF 6
TER
ENDMDL
