MODEL        1
USER    Run = 1
USER
USER    Estimated Free Energy of Binding    =  -4.78 kcal/mol  [=(1)+(2)+(3)-(4)]
USER
USER    (1) Final Intermolecular Energy     =  -5.97 kcal/mol
USER        vdW + Hbond + desolv Energy     =  -5.94 kcal/mol
USER        Electrostatic Energy            =  -0.03 kcal/mol
USER        Moving Ligand-Fixed Receptor    =  -5.97 kcal/mol
USER        Moving Ligand-Moving Receptor   =  +0.00 kcal/mol
USER    (2) Final Total Internal Energy     =  -0.31 kcal/mol
USER    (3) Torsional Free Energy           =  +1.19 kcal/mol
USER    (4) Unbound System's Energy         =  -0.31 kcal/mol
USER
USER
REMARK  Name = Z16522955
REMARK  4 active torsions:
REMARK  status: ('A' for Active; 'I' for Inactive)
REMARK    1  A    between atoms: C_2  and  C_5
REMARK    2  A    between atoms: C_8  and  S_9
REMARK    3  A    between atoms: S_9  and  C_10
REMARK    4  A    between atoms: C_10  and  C_11
REMARK                            x       y       z     vdW  Elec       q    Type
REMARK                         _______ _______ _______ _____ _____    ______ ____
USER                              x       y       z     vdW  Elec       q    Type
USER                           _______ _______ _______ _____ _____    ______ ____
ROOT
ATOM      1  C   UNL     1     154.547 167.093 179.009 -0.36 -0.05    +0.074 A 
ATOM      2  C   UNL     1     155.035 165.900 178.467 -0.33 -0.02    +0.036 A 
ATOM      3  C   UNL     1     156.244 165.892 177.767 -0.35 -0.03    +0.073 A 
ATOM      4 CL   UNL     1     156.775 164.387 177.107 -0.49 +0.04    -0.081 Cl
ATOM      5  C   UNL     1     156.948 167.092 177.631 -0.36 -0.06    +0.116 A 
ATOM      6  N   UNL     1     156.480 168.263 178.143 -0.32 +0.15    -0.247 NA
ATOM      7  C   UNL     1     155.305 168.237 178.816 -0.25 -0.09    +0.124 A 
ENDROOT
BRANCH   1   9
ATOM      8  F   UNL     1     152.676 168.371 179.776 -0.08 +0.17    -0.166 F 
ATOM      9  C   UNL     1     153.255 167.139 179.763 -0.10 -0.36    +0.419 C 
ATOM     10  F   UNL     1     152.322 166.293 179.249 -0.06 +0.12    -0.166 F 
ATOM     11  F   UNL     1     153.404 166.783 181.069 -0.11 +0.13    -0.166 F 
ENDBRANCH   1   9
BRANCH   5  12
ATOM     12  S   UNL     1     158.477 167.191 176.708 -0.45 +0.03    -0.095 S 
BRANCH  12  13
ATOM     13  C   UNL     1     159.020 168.880 177.115 -0.38 -0.06    +0.172 C 
BRANCH  13  14
ATOM     14  C   UNL     1     159.856 169.528 176.012 -0.28 -0.02    +0.233 C 
ATOM     15  N   UNL     1     161.106 168.953 175.799 -0.25 +0.01    -0.224 N 
ATOM     16  C   UNL     1     161.728 167.887 176.482 -0.21 -0.03    +0.309 C 
ATOM     17  O   UNL     1     161.314 167.253 177.436 -0.38 +0.04    -0.252 OA
ATOM     18  N   UNL     1     162.943 167.633 175.855 -0.20 +0.05    -0.297 N 
ATOM     19  H   UNL     1     163.443 166.782 176.082 +0.10 -0.03    +0.150 HD
ATOM     20  C   UNL     1     163.011 168.337 174.606 -0.35 -0.02    +0.125 C 
ATOM     21  C   UNL     1     162.016 169.469 174.795 -0.32 -0.01    +0.136 C 
ATOM     22  O   UNL     1     159.485 170.494 175.343 -0.40 +0.01    -0.274 OA
ENDBRANCH  13  14
ENDBRANCH  12  13
ENDBRANCH   5  12
TORSDOF 4
TER
ENDMDL
