MODEL        1
USER    Run = 1
USER
USER    Estimated Free Energy of Binding    =  -4.09 kcal/mol  [=(1)+(2)+(3)-(4)]
USER
USER    (1) Final Intermolecular Energy     =  -5.58 kcal/mol
USER        vdW + Hbond + desolv Energy     =  -5.45 kcal/mol
USER        Electrostatic Energy            =  -0.13 kcal/mol
USER        Moving Ligand-Fixed Receptor    =  -5.58 kcal/mol
USER        Moving Ligand-Moving Receptor   =  +0.00 kcal/mol
USER    (2) Final Total Internal Energy     =  -1.25 kcal/mol
USER    (3) Torsional Free Energy           =  +1.49 kcal/mol
USER    (4) Unbound System's Energy         =  -1.25 kcal/mol
USER
USER
REMARK  Name = Z16504672
REMARK  8 active torsions:
REMARK  status: ('A' for Active; 'I' for Inactive)
REMARK    1  A    between atoms: C_1  and  C_2
REMARK    2  A    between atoms: N_4  and  C_5
REMARK    3  A    between atoms: C_7  and  C_8
REMARK    4  A    between atoms: C_9  and  C_10
REMARK    5  A    between atoms: C_11  and  C_12
REMARK    6  A    between atoms: C_12  and  O_14
REMARK    7  A    between atoms: O_14  and  C_15
REMARK    8  A    between atoms: C_15  and  C_16
REMARK                            x       y       z     vdW  Elec       q    Type
REMARK                         _______ _______ _______ _____ _____    ______ ____
USER                              x       y       z     vdW  Elec       q    Type
USER                           _______ _______ _______ _____ _____    ______ ____
ROOT
ATOM      1  C   UNL     1     161.163 169.600 175.591 -0.36 -0.00    +0.086 A 
ATOM      2  C   UNL     1     161.239 168.340 176.161 -0.28 -0.01    +0.091 A 
ATOM      3  C   UNL     1     159.945 167.988 176.750 -0.40 +0.00    -0.025 A 
ATOM      4  C   UNL     1     159.679 166.702 177.477 +0.00 -0.01    +0.045 C 
ATOM      5  C   UNL     1     159.004 168.992 176.575 -0.40 +0.00    -0.008 A 
ATOM      6  C   UNL     1     157.613 169.060 177.117 -0.31 -0.03    +0.052 C 
ATOM      7  S   UNL     1     159.595 170.247 175.584 -0.46 +0.00    -0.078 S 
ENDROOT
BRANCH   1  10
ATOM      8  C   UNL     1     163.374 172.470 174.826 -0.14 -0.00    +0.109 C 
ATOM      9  C   UNL     1     162.234 171.743 175.491 -0.19 +0.01    +0.214 C 
ATOM     10  N   UNL     1     162.081 170.454 175.015 -0.18 +0.02    -0.280 N 
ATOM     11  H   UNL     1     162.256 170.314 174.028 +0.10 -0.02    +0.155 HD
ATOM     12  O   UNL     1     161.543 172.287 176.346 -0.27 -0.09    -0.276 OA
ENDBRANCH   1  10
BRANCH   2  13
ATOM     13  C   UNL     1     162.421 167.462 176.202 -0.18 -0.04    +0.342 C 
ATOM     14  O   UNL     1     162.820 166.942 177.240 -0.28 +0.03    -0.245 OA
BRANCH  13  15
ATOM     15  O   UNL     1     163.022 167.264 174.999 -0.17 +0.09    -0.456 OA
BRANCH  15  16
ATOM     16  C   UNL     1     164.290 167.905 174.862 -0.22 -0.08    +0.268 C 
BRANCH  16  17
ATOM     17  C   UNL     1     164.262 168.827 173.675 -0.40 +0.00    -0.010 A 
ATOM     18  C   UNL     1     165.109 169.945 173.634 -0.27 -0.00    +0.010 A 
ATOM     19  C   UNL     1     165.085 170.801 172.535 -0.27 -0.01    +0.039 A 
ATOM     20  C   UNL     1     164.218 170.538 171.481 -0.13 -0.03    +0.123 A 
ATOM     21  F   UNL     1     164.195 171.364 170.426 -0.04 +0.05    -0.205 F 
ATOM     22  C   UNL     1     163.380 169.429 171.499 -0.23 -0.01    +0.039 A 
ATOM     23  C   UNL     1     163.403 168.571 172.596 -0.37 -0.00    +0.010 A 
ENDBRANCH  16  17
ENDBRANCH  15  16
ENDBRANCH  13  15
ENDBRANCH   2  13
TORSDOF 5
TER
ENDMDL
