MODEL        1
USER    Run = 1
USER
USER    Estimated Free Energy of Binding    =  -5.46 kcal/mol  [=(1)+(2)+(3)-(4)]
USER
USER    (1) Final Intermolecular Energy     =  -7.25 kcal/mol
USER        vdW + Hbond + desolv Energy     =  -7.11 kcal/mol
USER        Electrostatic Energy            =  -0.14 kcal/mol
USER        Moving Ligand-Fixed Receptor    =  -7.25 kcal/mol
USER        Moving Ligand-Moving Receptor   =  +0.00 kcal/mol
USER    (2) Final Total Internal Energy     =  -0.56 kcal/mol
USER    (3) Torsional Free Energy           =  +1.79 kcal/mol
USER    (4) Unbound System's Energy         =  -0.56 kcal/mol
USER
USER
REMARK  Name = Z16523119
REMARK  6 active torsions:
REMARK  status: ('A' for Active; 'I' for Inactive)
REMARK    1  A    between atoms: C_2  and  C_5
REMARK    2  A    between atoms: C_8  and  S_9
REMARK    3  A    between atoms: S_9  and  C_10
REMARK    4  A    between atoms: C_10  and  C_11
REMARK    5  A    between atoms: C_14  and  C_16
REMARK    6  A    between atoms: C_16  and  C_17
REMARK                            x       y       z     vdW  Elec       q    Type
REMARK                         _______ _______ _______ _____ _____    ______ ____
USER                              x       y       z     vdW  Elec       q    Type
USER                           _______ _______ _______ _____ _____    ______ ____
ROOT
ATOM      1  C   UNL     1     156.691 166.326 176.632 -0.35 -0.10    +0.172 C 
ENDROOT
BRANCH   1   2
ATOM      2  C   UNL     1     158.122 166.489 177.128 -0.24 -0.09    +0.229 C 
ATOM      3  N   UNL     1     158.780 167.613 176.655 -0.22 +0.08    -0.255 N 
ATOM      4  H   UNL     1     158.250 168.276 176.106 -0.12 -0.10    +0.158 HD
ATOM      5  C   UNL     1     160.063 167.961 177.032 -0.34 -0.04    +0.224 C 
ATOM      6  O   UNL     1     160.757 167.359 177.850 -0.32 +0.07    -0.275 OA
ATOM      7  O   UNL     1     158.627 165.638 177.857 -0.21 +0.08    -0.275 OA
BRANCH   5   8
ATOM      8  C   UNL     1     160.616 169.210 176.361 -0.43 -0.01    +0.131 C 
BRANCH   8   9
ATOM      9  C   UNL     1     161.831 168.994 175.487 -0.31 +0.00    -0.039 A 
ATOM     10  C   UNL     1     162.156 169.963 174.523 -0.35 -0.00    +0.004 A 
ATOM     11  C   UNL     1     163.250 169.786 173.673 -0.33 -0.00    +0.000 A 
ATOM     12  C   UNL     1     164.027 168.635 173.765 -0.42 -0.00    +0.000 A 
ATOM     13  C   UNL     1     163.693 167.647 174.688 -0.43 -0.00    +0.000 A 
ATOM     14  C   UNL     1     162.595 167.818 175.534 -0.37 -0.00    +0.004 A 
ENDBRANCH   8   9
ENDBRANCH   5   8
ENDBRANCH   1   2
BRANCH   1  15
ATOM     15  S   UNL     1     155.775 165.160 177.691 -0.36 +0.04    -0.095 S 
BRANCH  15  20
ATOM     16  C   UNL     1     153.235 168.253 179.844 -0.24 -0.08    +0.074 A 
ATOM     17  C   UNL     1     152.725 166.956 179.720 -0.25 -0.03    +0.036 A 
ATOM     18  C   UNL     1     153.481 165.965 179.084 -0.29 -0.04    +0.073 A 
ATOM     19 CL   UNL     1     152.784 164.393 178.939 -0.42 +0.03    -0.081 Cl
ATOM     20  C   UNL     1     154.749 166.302 178.600 -0.32 -0.06    +0.116 A 
ATOM     21  N   UNL     1     155.268 167.555 178.737 -0.31 +0.17    -0.247 NA
ATOM     22  C   UNL     1     154.503 168.492 179.341 -0.19 -0.12    +0.124 A 
BRANCH  16  24
ATOM     23  F   UNL     1     152.861 170.597 180.122 -0.11 +0.15    -0.166 F 
ATOM     24  C   UNL     1     152.446 169.352 180.486 -0.09 -0.43    +0.419 C 
ATOM     25  F   UNL     1     151.125 169.292 180.166 -0.03 +0.14    -0.166 F 
ATOM     26  F   UNL     1     152.509 169.315 181.843 -0.08 +0.22    -0.166 F 
ENDBRANCH  16  24
ENDBRANCH  15  20
ENDBRANCH   1  15
TORSDOF 6
TER
ENDMDL
