MODEL        1
USER    Run = 1
USER
USER    Estimated Free Energy of Binding    =  -5.03 kcal/mol  [=(1)+(2)+(3)-(4)]
USER
USER    (1) Final Intermolecular Energy     =  -6.82 kcal/mol
USER        vdW + Hbond + desolv Energy     =  -6.88 kcal/mol
USER        Electrostatic Energy            =  +0.06 kcal/mol
USER        Moving Ligand-Fixed Receptor    =  -6.82 kcal/mol
USER        Moving Ligand-Moving Receptor   =  +0.00 kcal/mol
USER    (2) Final Total Internal Energy     =  -0.48 kcal/mol
USER    (3) Torsional Free Energy           =  +1.79 kcal/mol
USER    (4) Unbound System's Energy         =  -0.48 kcal/mol
USER
USER
REMARK  Name = Z16523406
REMARK  8 active torsions:
REMARK  status: ('A' for Active; 'I' for Inactive)
REMARK    1  A    between atoms: C_1  and  C_2
REMARK    2  A    between atoms: C_2  and  C_3
REMARK    3  A    between atoms: C_2  and  C_4
REMARK    4  A    between atoms: C_4  and  N_5
REMARK    5  A    between atoms: C_9  and  C_11
REMARK    6  A    between atoms: C_11  and  S_12
REMARK    7  A    between atoms: S_12  and  C_13
REMARK    8  A    between atoms: C_16  and  C_20
REMARK                            x       y       z     vdW  Elec       q    Type
REMARK                         _______ _______ _______ _____ _____    ______ ____
USER                              x       y       z     vdW  Elec       q    Type
USER                           _______ _______ _______ _____ _____    ______ ____
ROOT
ATOM      1  C   UNL     1     158.242 167.260 176.771 -0.27 -0.07    +0.172 C 
ENDROOT
BRANCH   1   7
ATOM      2  N   UNL     1     154.990 166.498 179.556 -0.22 +0.18    -0.299 N 
ATOM      3  H   UNL     1     155.651 165.759 179.325 +0.10 -0.07    +0.150 HD
ATOM      4  C   UNL     1     155.132 167.680 178.898 -0.25 -0.22    +0.306 C 
ATOM      5  N   UNL     1     156.245 167.791 178.101 -0.34 +0.14    -0.239 N 
ATOM      6  H   UNL     1     156.285 168.675 177.609 +0.08 -0.11    +0.159 HD
ATOM      7  C   UNL     1     157.148 166.810 177.727 -0.28 -0.11    +0.231 C 
ATOM      8  O   UNL     1     157.153 165.677 178.212 -0.26 +0.11    -0.274 OA
ATOM      9  O   UNL     1     154.345 168.618 178.987 -0.34 +0.24    -0.252 OA
BRANCH   2  10
ATOM     10  C   UNL     1     153.890 166.203 180.448 -0.34 -0.07    +0.108 C 
BRANCH  10  12
ATOM     11  C   UNL     1     152.922 164.654 178.682 -0.37 -0.00    +0.009 C 
ATOM     12  C   UNL     1     152.621 165.741 179.717 -0.36 -0.00    +0.000 C 
ATOM     13  C   UNL     1     151.604 165.219 180.734 -0.39 -0.00    +0.009 C 
ENDBRANCH  10  12
ENDBRANCH   2  10
ENDBRANCH   1   7
BRANCH   1  14
ATOM     14  S   UNL     1     159.256 168.604 177.469 -0.62 +0.03    -0.095 S 
BRANCH  14  15
ATOM     15  C   UNL     1     160.722 168.480 176.447 -0.33 -0.01    +0.116 A 
ATOM     16  C   UNL     1     161.051 169.457 175.501 -0.33 -0.00    +0.073 A 
ATOM     17 CL   UNL     1     160.094 170.863 175.205 -0.55 -0.00    -0.081 Cl
ATOM     18  C   UNL     1     162.224 169.302 174.758 -0.33 -0.00    +0.036 A 
ATOM     19  C   UNL     1     163.041 168.186 174.963 -0.30 -0.01    +0.074 A 
ATOM     20  C   UNL     1     162.630 167.261 175.909 -0.28 -0.02    +0.124 A 
ATOM     21  N   UNL     1     161.501 167.386 176.648 -0.26 +0.03    -0.247 NA
BRANCH  19  22
ATOM     22  C   UNL     1     164.317 167.998 174.201 -0.17 -0.12    +0.419 C 
ATOM     23  F   UNL     1     164.449 166.730 173.724 -0.18 +0.05    -0.166 F 
ATOM     24  F   UNL     1     165.418 168.227 174.966 -0.17 +0.07    -0.166 F 
ATOM     25  F   UNL     1     164.432 168.819 173.122 -0.11 +0.04    -0.166 F 
ENDBRANCH  19  22
ENDBRANCH  14  15
ENDBRANCH   1  14
TORSDOF 6
TER
ENDMDL
