MODEL        1
USER    Run = 1
USER
USER    Estimated Free Energy of Binding    =  -3.72 kcal/mol  [=(1)+(2)+(3)-(4)]
USER
USER    (1) Final Intermolecular Energy     =  -4.91 kcal/mol
USER        vdW + Hbond + desolv Energy     =  -4.95 kcal/mol
USER        Electrostatic Energy            =  +0.03 kcal/mol
USER        Moving Ligand-Fixed Receptor    =  -4.91 kcal/mol
USER        Moving Ligand-Moving Receptor   =  +0.00 kcal/mol
USER    (2) Final Total Internal Energy     =  -1.68 kcal/mol
USER    (3) Torsional Free Energy           =  +1.19 kcal/mol
USER    (4) Unbound System's Energy         =  -1.68 kcal/mol
USER
USER
REMARK  Name = Z16505417
REMARK  4 active torsions:
REMARK  status: ('A' for Active; 'I' for Inactive)
REMARK    1  A    between atoms: C_5  and  C_8
REMARK    2  A    between atoms: C_15  and  O_16
REMARK    3  A    between atoms: O_16  and  C_17
REMARK    4  A    between atoms: C_17  and  C_18
REMARK                            x       y       z     vdW  Elec       q    Type
REMARK                         _______ _______ _______ _____ _____    ______ ____
USER                              x       y       z     vdW  Elec       q    Type
USER                           _______ _______ _______ _____ _____    ______ ____
ROOT
ATOM      1  C   UNL     1     163.840 169.933 173.320 -0.33 -0.00    +0.004 A 
ATOM      2  C   UNL     1     162.899 169.952 174.442 -0.24 -0.01    +0.077 A 
ATOM      3  C   UNL     1     162.616 168.653 174.858 -0.26 -0.02    +0.116 A 
ATOM      4  N   UNL     1     161.825 168.276 175.878 -0.24 +0.02    -0.228 NA
ATOM      5  C   UNL     1     161.280 169.307 176.516 -0.16 -0.02    +0.226 A 
ATOM      6  N   UNL     1     161.436 170.604 176.230 -0.27 -0.00    -0.201 NA
ATOM      7  S   UNL     1     163.377 167.456 173.927 -0.52 +0.02    -0.076 S 
ATOM      8  C   UNL     1     162.231 170.942 175.187 -0.11 -0.01    +0.227 A 
ATOM      9  C   UNL     1     164.159 168.628 172.974 -0.23 -0.01    +0.056 A 
ENDROOT
BRANCH   1  14
ATOM     10 CL   UNL     1     166.380 174.530 170.377 -0.41 -0.01    -0.084 Cl
ATOM     11  C   UNL     1     165.661 173.212 171.216 -0.19 +0.00    +0.041 A 
ATOM     12  C   UNL     1     165.101 172.156 170.505 -0.27 +0.00    +0.020 A 
ATOM     13  C   UNL     1     164.496 171.094 171.191 -0.25 -0.00    +0.010 A 
ATOM     14  C   UNL     1     164.488 171.042 172.590 -0.25 +0.00    -0.017 A 
ATOM     15  C   UNL     1     165.066 172.122 173.285 -0.19 -0.00    +0.010 A 
ATOM     16  C   UNL     1     165.633 173.207 172.605 -0.10 -0.00    +0.020 A 
ENDBRANCH   1  14
BRANCH   8  17
ATOM     17  O   UNL     1     162.325 172.284 174.864 +0.07 -0.05    -0.466 OA
BRANCH  17  18
ATOM     18  C   UNL     1     162.667 173.102 175.985 -0.06 +0.13    +0.327 C 
BRANCH  18  19
ATOM     19  C   UNL     1     164.112 173.616 175.926 -0.09 +0.03    +0.261 C 
ATOM     20  N   UNL     1     164.332 174.801 175.253 -0.07 -0.04    -0.222 N 
ATOM     21  C   UNL     1     163.557 175.380 174.231 -0.03 +0.01    +0.309 C 
ATOM     22  O   UNL     1     162.494 174.994 173.780 +0.04 +0.03    -0.252 OA
ATOM     23  N   UNL     1     164.225 176.527 173.802 -0.05 +0.10    -0.297 N 
ATOM     24  H   UNL     1     163.765 177.178 173.177 -0.47 -0.15    +0.150 HD
ATOM     25  C   UNL     1     165.318 176.823 174.685 -0.04 -0.01    +0.125 C 
ATOM     26  C   UNL     1     165.610 175.474 175.317 -0.07 -0.00    +0.137 C 
ATOM     27  O   UNL     1     165.045 173.003 176.458 -0.19 +0.03    -0.271 OA
ENDBRANCH  18  19
ENDBRANCH  17  18
ENDBRANCH   8  17
TORSDOF 4
TER
ENDMDL
