MODEL        1
USER    Run = 1
USER
USER    Estimated Free Energy of Binding    =  -6.54 kcal/mol  [=(1)+(2)+(3)-(4)]
USER
USER    (1) Final Intermolecular Energy     =  -7.43 kcal/mol
USER        vdW + Hbond + desolv Energy     =  -7.46 kcal/mol
USER        Electrostatic Energy            =  +0.03 kcal/mol
USER        Moving Ligand-Fixed Receptor    =  -7.43 kcal/mol
USER        Moving Ligand-Moving Receptor   =  +0.00 kcal/mol
USER    (2) Final Total Internal Energy     =  -0.63 kcal/mol
USER    (3) Torsional Free Energy           =  +0.89 kcal/mol
USER    (4) Unbound System's Energy         =  -0.63 kcal/mol
USER
USER
REMARK  Name = Z16512164
REMARK  3 active torsions:
REMARK  status: ('A' for Active; 'I' for Inactive)
REMARK    1  A    between atoms: C_2  and  C_3
REMARK    2  A    between atoms: C_3  and  O_4
REMARK    3  A    between atoms: O_4  and  C_5
REMARK                            x       y       z     vdW  Elec       q    Type
REMARK                         _______ _______ _______ _____ _____    ______ ____
USER                              x       y       z     vdW  Elec       q    Type
USER                           _______ _______ _______ _____ _____    ______ ____
ROOT
ATOM      1  O   UNL     1     157.173 168.370 177.199 -0.18 +0.33    -0.466 OA
ENDROOT
BRANCH   1   2
ATOM      2  C   UNL     1     156.845 167.035 177.135 -0.26 -0.13    +0.227 A 
ATOM      3  C   UNL     1     155.742 166.546 177.849 -0.38 -0.04    +0.073 A 
ATOM      4  C   UNL     1     155.524 165.181 177.719 -0.15 -0.05    +0.116 A 
ATOM      5  S   UNL     1     154.179 164.635 178.609 -0.27 +0.03    -0.073 S 
ATOM      6  C   UNL     1     153.859 166.198 179.195 -0.36 +0.00    -0.004 A 
ATOM      7  C   UNL     1     152.703 166.475 180.104 -0.33 -0.03    +0.043 C 
ATOM      8  C   UNL     1     152.856 167.851 180.764 -0.34 -0.00    +0.005 C 
ATOM      9  C   UNL     1     153.277 168.916 179.741 -0.36 -0.01    +0.005 C 
ATOM     10  C   UNL     1     154.644 168.591 179.111 -0.28 -0.04    +0.037 C 
ATOM     11  N   UNL     1     156.251 164.320 176.988 -0.13 +0.11    -0.228 NA
ATOM     12  C   UNL     1     157.270 164.910 176.361 -0.15 -0.12    +0.226 A 
ATOM     13  C   UNL     1     154.748 167.144 178.712 -0.41 +0.02    -0.023 A 
ATOM     14  N   UNL     1     157.610 166.206 176.392 -0.27 +0.10    -0.201 NA
ENDBRANCH   1   2
BRANCH   1  15
ATOM     15  C   UNL     1     158.451 168.614 177.786 -0.08 -0.13    +0.327 C 
BRANCH  15  17
ATOM     16  O   UNL     1     159.063 170.050 175.957 -0.26 +0.05    -0.272 OA
ATOM     17  C   UNL     1     159.408 169.134 176.710 -0.26 -0.06    +0.258 C 
ATOM     18  N   UNL     1     160.630 168.483 176.630 -0.28 +0.03    -0.268 N 
ATOM     19  C   UNL     1     161.575 168.662 175.603 -0.27 -0.00    +0.040 A 
ATOM     20  C   UNL     1     162.641 167.778 175.766 -0.33 +0.00    -0.025 A 
ATOM     21  C   UNL     1     163.669 167.716 174.836 -0.41 -0.00    +0.005 A 
ATOM     22  C   UNL     1     163.620 168.569 173.731 -0.41 -0.00    +0.000 A 
ATOM     23  C   UNL     1     162.559 169.471 173.575 -0.32 -0.00    +0.002 A 
ATOM     24  C   UNL     1     162.477 166.946 176.996 -0.32 -0.01    +0.056 C 
ATOM     25  C   UNL     1     161.528 169.521 174.517 -0.25 -0.00    +0.024 A 
ATOM     26  C   UNL     1     161.150 167.468 177.566 -0.41 -0.02    +0.118 C 
ENDBRANCH  15  17
ENDBRANCH   1  15
TORSDOF 3
TER
ENDMDL
