MODEL        1
USER    Run = 1
USER
USER    Estimated Free Energy of Binding    =  -4.26 kcal/mol  [=(1)+(2)+(3)-(4)]
USER
USER    (1) Final Intermolecular Energy     =  -5.75 kcal/mol
USER        vdW + Hbond + desolv Energy     =  -5.63 kcal/mol
USER        Electrostatic Energy            =  -0.12 kcal/mol
USER        Moving Ligand-Fixed Receptor    =  -5.75 kcal/mol
USER        Moving Ligand-Moving Receptor   =  +0.00 kcal/mol
USER    (2) Final Total Internal Energy     =  -2.03 kcal/mol
USER    (3) Torsional Free Energy           =  +1.49 kcal/mol
USER    (4) Unbound System's Energy         =  -2.03 kcal/mol
USER
USER
REMARK  Name = Z16519519
REMARK  5 active torsions:
REMARK  status: ('A' for Active; 'I' for Inactive)
REMARK    1  A    between atoms: C_2  and  C_3
REMARK    2  A    between atoms: C_3  and  N_4
REMARK    3  A    between atoms: C_5  and  C_7
REMARK    4  A    between atoms: C_7  and  O_8
REMARK    5  A    between atoms: O_8  and  C_9
REMARK                            x       y       z     vdW  Elec       q    Type
REMARK                         _______ _______ _______ _____ _____    ______ ____
USER                              x       y       z     vdW  Elec       q    Type
USER                           _______ _______ _______ _____ _____    ______ ____
ROOT
ATOM      1  C   UNL     1     153.458 166.244 179.254 -0.18 -0.15    +0.227 A 
ATOM      2  C   UNL     1     154.667 166.584 178.642 -0.35 -0.04    +0.073 A 
ATOM      3  C   UNL     1     155.031 167.926 178.739 -0.32 -0.09    +0.116 A 
ATOM      4  S   UNL     1     156.523 168.277 177.954 -0.60 +0.04    -0.073 S 
ATOM      5  C   UNL     1     156.680 166.676 177.500 -0.47 +0.00    -0.004 A 
ATOM      6  C   UNL     1     157.731 165.967 176.734 -0.37 -0.02    +0.043 C 
ATOM      7  C   UNL     1     157.372 164.484 177.059 -0.42 -0.00    +0.010 C 
ATOM      8  C   UNL     1     155.866 164.470 177.474 -0.19 -0.02    +0.037 C 
ATOM      9  N   UNL     1     154.338 168.896 179.359 -0.24 +0.24    -0.228 NA
ATOM     10  C   UNL     1     153.208 168.441 179.910 -0.12 -0.25    +0.226 A 
ATOM     11  C   UNL     1     155.652 165.872 177.913 -0.35 +0.01    -0.023 A 
ATOM     12  N   UNL     1     152.734 167.185 179.895 -0.18 +0.17    -0.201 NA
ENDROOT
BRANCH   1  13
ATOM     13  O   UNL     1     153.001 164.940 179.204 -0.10 +0.20    -0.466 OA
BRANCH  13  14
ATOM     14  C   UNL     1     151.737 164.838 178.550 -0.17 -0.13    +0.326 C 
BRANCH  14  17
ATOM     15  N   UNL     1     150.904 165.265 180.815 -0.19 +0.08    -0.309 N 
ATOM     16  H   UNL     1     151.865 165.533 180.998 +0.10 -0.06    +0.149 HD
ATOM     17  C   UNL     1     150.570 164.902 179.532 -0.19 -0.05    +0.251 C 
ATOM     18  O   UNL     1     149.422 164.634 179.184 -0.29 -0.05    -0.272 OA
BRANCH  15  19
ATOM     19  C   UNL     1     149.919 165.420 181.853 -0.35 -0.03    +0.131 C 
BRANCH  19  21
ATOM     20  C   UNL     1     150.935 167.584 182.617 -0.31 -0.00    +0.005 C 
ATOM     21  C   UNL     1     149.874 166.866 182.231 -0.31 +0.01    -0.016 C 
ENDBRANCH  19  21
ENDBRANCH  15  19
ENDBRANCH  14  17
ENDBRANCH  13  14
ENDBRANCH   1  13
TORSDOF 5
TER
ENDMDL
