MODEL        1
USER    Run = 1
USER
USER    Estimated Free Energy of Binding    =  -3.55 kcal/mol  [=(1)+(2)+(3)-(4)]
USER
USER    (1) Final Intermolecular Energy     =  -4.45 kcal/mol
USER        vdW + Hbond + desolv Energy     =  -4.30 kcal/mol
USER        Electrostatic Energy            =  -0.14 kcal/mol
USER        Moving Ligand-Fixed Receptor    =  -4.45 kcal/mol
USER        Moving Ligand-Moving Receptor   =  +0.00 kcal/mol
USER    (2) Final Total Internal Energy     =  -1.79 kcal/mol
USER    (3) Torsional Free Energy           =  +0.89 kcal/mol
USER    (4) Unbound System's Energy         =  -1.79 kcal/mol
USER
USER
REMARK  Name = Z16519514
REMARK  4 active torsions:
REMARK  status: ('A' for Active; 'I' for Inactive)
REMARK    1  A    between atoms: C_1  and  N_2
REMARK    2  A    between atoms: C_3  and  C_5
REMARK    3  A    between atoms: C_5  and  O_6
REMARK    4  A    between atoms: O_6  and  C_7
REMARK                            x       y       z     vdW  Elec       q    Type
REMARK                         _______ _______ _______ _____ _____    ______ ____
USER                              x       y       z     vdW  Elec       q    Type
USER                           _______ _______ _______ _____ _____    ______ ____
ROOT
ATOM      1  C   UNL     1     162.867 170.736 174.471 -0.06 -0.03    +0.227 A 
ATOM      2  C   UNL     1     162.509 169.507 175.022 -0.13 -0.01    +0.073 A 
ATOM      3  C   UNL     1     163.292 168.421 174.640 -0.27 -0.02    +0.116 A 
ATOM      4  S   UNL     1     162.792 166.948 175.381 -0.33 +0.01    -0.073 S 
ATOM      5  C   UNL     1     161.556 167.744 176.179 -0.34 +0.00    -0.004 A 
ATOM      6  C   UNL     1     160.509 167.273 177.115 -0.36 -0.01    +0.043 C 
ATOM      7  C   UNL     1     159.978 168.633 177.669 -0.49 -0.00    +0.010 C 
ATOM      8  C   UNL     1     160.365 169.726 176.626 -0.45 -0.00    +0.037 C 
ATOM      9  N   UNL     1     164.339 168.461 173.798 -0.28 +0.06    -0.228 NA
ATOM     10  C   UNL     1     164.574 169.698 173.337 -0.17 -0.07    +0.226 A 
ATOM     11  C   UNL     1     161.495 169.083 175.911 -0.37 +0.00    -0.023 A 
ATOM     12  N   UNL     1     163.907 170.831 173.624 -0.15 +0.05    -0.201 NA
ENDROOT
BRANCH   1  13
ATOM     13  O   UNL     1     162.193 171.866 174.876 +0.00 -0.02    -0.466 OA
BRANCH  13  14
ATOM     14  C   UNL     1     162.753 172.482 176.032 -0.08 +0.05    +0.326 C 
BRANCH  14  18
ATOM     15  C   UNL     1     164.410 174.990 173.702 -0.12 -0.02    +0.128 C 
ATOM     16  N   UNL     1     163.755 173.843 174.271 -0.04 -0.00    -0.316 N 
ATOM     17  H   UNL     1     163.741 172.966 173.760 +0.08 -0.02    +0.148 HD
ATOM     18  C   UNL     1     163.386 173.803 175.601 -0.07 +0.10    +0.251 C 
ATOM     19  O   UNL     1     163.505 174.760 176.361 -0.69 -0.21    -0.272 OA
ENDBRANCH  14  18
ENDBRANCH  13  14
ENDBRANCH   1  13
TORSDOF 3
TER
ENDMDL
