MODEL        1
USER    Run = 1
USER
USER    Estimated Free Energy of Binding    =  -4.36 kcal/mol  [=(1)+(2)+(3)-(4)]
USER
USER    (1) Final Intermolecular Energy     =  -5.55 kcal/mol
USER        vdW + Hbond + desolv Energy     =  -5.44 kcal/mol
USER        Electrostatic Energy            =  -0.11 kcal/mol
USER        Moving Ligand-Fixed Receptor    =  -5.55 kcal/mol
USER        Moving Ligand-Moving Receptor   =  +0.00 kcal/mol
USER    (2) Final Total Internal Energy     =  -1.70 kcal/mol
USER    (3) Torsional Free Energy           =  +1.19 kcal/mol
USER    (4) Unbound System's Energy         =  -1.70 kcal/mol
USER
USER
REMARK  Name = Z16507821
REMARK  5 active torsions:
REMARK  status: ('A' for Active; 'I' for Inactive)
REMARK    1  A    between atoms: C_1  and  N_2
REMARK    2  A    between atoms: C_6  and  C_8
REMARK    3  A    between atoms: C_8  and  O_9
REMARK    4  A    between atoms: O_9  and  C_10
REMARK    5  A    between atoms: C_17  and  C_18
REMARK                            x       y       z     vdW  Elec       q    Type
REMARK                         _______ _______ _______ _____ _____    ______ ____
USER                              x       y       z     vdW  Elec       q    Type
USER                           _______ _______ _______ _____ _____    ______ ____
ROOT
ATOM      1  C   UNL     1     163.411 172.548 175.146 -0.06 +0.00    +0.227 A 
ATOM      2  C   UNL     1     163.478 171.296 174.477 -0.12 -0.01    +0.077 A 
ATOM      3  C   UNL     1     164.459 171.261 173.485 -0.15 -0.03    +0.116 A 
ATOM      4  S   UNL     1     164.646 169.756 172.725 -0.44 +0.02    -0.076 S 
ATOM      5  C   UNL     1     163.364 169.098 173.615 -0.33 -0.01    +0.056 A 
ATOM      6  N   UNL     1     165.258 172.267 173.092 -0.09 +0.06    -0.228 NA
ATOM      7  C   UNL     1     165.078 173.382 173.773 +0.03 -0.04    +0.226 A 
ATOM      8  C   UNL     1     162.785 169.981 174.521 -0.29 -0.00    +0.004 A 
ATOM      9  N   UNL     1     164.228 173.564 174.785 -0.10 +0.00    -0.201 NA
ENDROOT
BRANCH   8  10
ATOM     10  C   UNL     1     161.628 169.515 175.310 -0.37 +0.00    -0.016 A 
ATOM     11  C   UNL     1     160.371 170.109 175.154 -0.45 +0.00    +0.011 A 
ATOM     12  C   UNL     1     159.287 169.726 175.956 -0.27 -0.01    +0.039 A 
ATOM     13  C   UNL     1     159.432 168.686 176.870 -0.37 -0.03    +0.123 A 
ATOM     14  F   UNL     1     158.398 168.338 177.641 -0.12 +0.08    -0.205 F 
ATOM     15  C   UNL     1     160.637 168.014 176.981 -0.43 -0.01    +0.039 A 
ATOM     16  C   UNL     1     161.731 168.436 176.217 -0.32 -0.00    +0.011 A 
ENDBRANCH   8  10
BRANCH   1  17
ATOM     17  O   UNL     1     162.620 172.807 176.252 -0.15 -0.14    -0.466 OA
BRANCH  17  18
ATOM     18  C   UNL     1     163.372 173.152 177.423 -0.08 +0.05    +0.326 C 
BRANCH  18  25
ATOM     19  C   UNL     1     164.191 178.905 178.174 +0.03 +0.01    +0.129 C 
ATOM     20  N   UNL     1     164.109 177.473 177.994 -0.01 -0.11    -0.302 N 
ATOM     21  H   UNL     1     164.125 176.866 178.810 +0.05 +0.07    +0.150 HD
ATOM     22  C   UNL     1     163.894 176.892 176.778 +0.05 +0.20    +0.306 C 
ATOM     23  N   UNL     1     163.814 175.517 176.756 -0.10 -0.16    -0.237 N 
ATOM     24  H   UNL     1     163.584 175.158 175.837 +0.06 +0.12    +0.159 HD
ATOM     25  C   UNL     1     163.726 174.619 177.805 -0.15 +0.11    +0.258 C 
ATOM     26  O   UNL     1     163.866 174.953 178.985 -0.68 -0.12    -0.272 OA
ATOM     27  O   UNL     1     163.757 177.533 175.739 -0.59 -0.18    -0.252 OA
ENDBRANCH  18  25
ENDBRANCH  17  18
ENDBRANCH   1  17
TORSDOF 4
TER
ENDMDL
